[General]
network = Network

sim-time-limit = 2s

# comMoudle[0] is master, comMoudle[1] and comMoudle[2] are salve.
Network.comMoudle[0].appL.applIsMaster= true
Network.comMoudle[1].appL.isapplIsMaster= false
Network.comMoudle[[2].applIsMaster= false

record-eventlog=true
