<?xml version="1.0" encoding="UTF-8"?>

<!-- generated on 2023-07-08 17:40:19 by Eclipse SUMO netconvert Version 1.12.0
<configuration xmlns:xsi="http://www.w3.org/2001/XMLSchema-instance" xsi:noNamespaceSchemaLocation="http://sumo.dlr.de/xsd/netconvertConfiguration.xsd">

    <input>
        <osm-files value="map.osm"/>
    </input>

    <projection>
        <proj.utm value="true"/>
    </projection>

    <report>
        <aggregate-warnings value="5"/>
    </report>

</configuration>
-->

<net version="1.9" junctionCornerDetail="5" limitTurnSpeed="5.50" xmlns:xsi="http://www.w3.org/2001/XMLSchema-instance" xsi:noNamespaceSchemaLocation="http://sumo.dlr.de/xsd/net_file.xsd">

    <location netOffset="-644563.55,-5494792.47" convBoundary="0.00,0.00,937.95,1612.00" origBoundary="11.000356,49.588395,11.013418,49.602712" projParameter="+proj=utm +zone=32 +ellps=WGS84 +datum=WGS84 +units=m +no_defs"/>

    <type id="highway.bridleway" priority="1" numLanes="1" speed="2.78" allow="pedestrian" oneway="1" width="2.00"/>
    <type id="highway.bus_guideway" priority="1" numLanes="1" speed="27.78" allow="bus" oneway="1"/>
    <type id="highway.cycleway" priority="1" numLanes="1" speed="5.56" allow="bicycle" oneway="0" width="2.00"/>
    <type id="highway.footway" priority="1" numLanes="1" speed="2.78" allow="pedestrian" oneway="1" width="2.00"/>
    <type id="highway.ford" priority="1" numLanes="1" speed="2.78" allow="army" oneway="0"/>
    <type id="highway.living_street" priority="2" numLanes="1" speed="2.78" disallow="tram rail_urban rail rail_electric rail_fast ship" oneway="0"/>
    <type id="highway.motorway" priority="14" numLanes="2" speed="39.44" allow="private emergency authority army vip passenger hov taxi bus coach delivery truck trailer motorcycle evehicle custom1 custom2" oneway="1"/>
    <type id="highway.motorway_link" priority="9" numLanes="1" speed="22.22" allow="private emergency authority army vip passenger hov taxi bus coach delivery truck trailer motorcycle evehicle custom1 custom2" oneway="1"/>
    <type id="highway.path" priority="1" numLanes="1" speed="5.56" allow="pedestrian bicycle" oneway="0" width="2.00"/>
    <type id="highway.pedestrian" priority="1" numLanes="1" speed="2.78" allow="pedestrian" oneway="1" width="2.00"/>
    <type id="highway.primary" priority="12" numLanes="2" speed="27.78" disallow="tram rail_urban rail rail_electric rail_fast ship" oneway="0"/>
    <type id="highway.primary_link" priority="7" numLanes="1" speed="22.22" disallow="tram rail_urban rail rail_electric rail_fast ship" oneway="0"/>
    <type id="highway.raceway" priority="15" numLanes="2" speed="83.33" allow="vip" oneway="0"/>
    <type id="highway.residential" priority="3" numLanes="1" speed="13.89" disallow="tram rail_urban rail rail_electric rail_fast ship" oneway="0"/>
    <type id="highway.secondary" priority="11" numLanes="1" speed="27.78" disallow="tram rail_urban rail rail_electric rail_fast ship" oneway="0"/>
    <type id="highway.secondary_link" priority="6" numLanes="1" speed="22.22" disallow="tram rail_urban rail rail_electric rail_fast ship" oneway="0"/>
    <type id="highway.service" priority="1" numLanes="1" speed="5.56" allow="pedestrian delivery bicycle" oneway="0"/>
    <type id="highway.stairs" priority="1" numLanes="1" speed="1.39" allow="pedestrian" oneway="1" width="2.00"/>
    <type id="highway.step" priority="1" numLanes="1" speed="1.39" allow="pedestrian" oneway="1" width="2.00"/>
    <type id="highway.steps" priority="1" numLanes="1" speed="1.39" allow="pedestrian" oneway="1" width="2.00"/>
    <type id="highway.tertiary" priority="10" numLanes="1" speed="22.22" disallow="tram rail_urban rail rail_electric rail_fast ship" oneway="0"/>
    <type id="highway.tertiary_link" priority="5" numLanes="1" speed="22.22" disallow="tram rail_urban rail rail_electric rail_fast ship" oneway="0"/>
    <type id="highway.track" priority="1" numLanes="1" speed="5.56" allow="pedestrian motorcycle moped bicycle" oneway="0"/>
    <type id="highway.trunk" priority="13" numLanes="2" speed="27.78" disallow="pedestrian bicycle tram rail_urban rail rail_electric rail_fast ship" oneway="0"/>
    <type id="highway.trunk_link" priority="8" numLanes="1" speed="22.22" disallow="pedestrian bicycle tram rail_urban rail rail_electric rail_fast ship" oneway="0"/>
    <type id="highway.unclassified" priority="4" numLanes="1" speed="13.89" disallow="tram rail_urban rail rail_electric rail_fast ship" oneway="0"/>
    <type id="highway.unsurfaced" priority="1" numLanes="1" speed="8.33" disallow="tram rail_urban rail rail_electric rail_fast ship" oneway="0"/>
    <type id="railway.highspeed" priority="21" numLanes="1" speed="69.44" allow="rail_fast" oneway="1"/>
    <type id="railway.light_rail" priority="19" numLanes="1" speed="27.78" allow="rail_urban" oneway="1"/>
    <type id="railway.preserved" priority="16" numLanes="1" speed="27.78" allow="rail" oneway="1"/>
    <type id="railway.rail" priority="20" numLanes="1" speed="44.44" allow="rail" oneway="1"/>
    <type id="railway.subway" priority="18" numLanes="1" speed="27.78" allow="rail_urban" oneway="1"/>
    <type id="railway.tram" priority="17" numLanes="1" speed="13.89" allow="tram" oneway="1"/>

    <edge id=":10003200740_0" function="internal">
        <lane id=":10003200740_0_0" index="0" disallow="tram rail_urban rail rail_electric rail_fast ship" speed="13.89" length="8.39" shape="721.97,651.58 719.47,651.78 717.82,652.69 716.17,653.60 713.67,653.82"/>
        <lane id=":10003200740_0_1" index="1" disallow="tram rail_urban rail rail_electric rail_fast ship" speed="13.89" length="8.39" shape="721.97,651.58 714.04,650.64"/>
    </edge>
    <edge id=":10003200740_2" function="internal">
        <lane id=":10003200740_2_0" index="0" disallow="tram rail_urban rail rail_electric rail_fast ship" speed="13.89" length="8.01" shape="714.40,647.46 722.36,648.41"/>
    </edge>
    <edge id=":10100973759_0" function="internal">
        <lane id=":10100973759_0_0" index="0" allow="pedestrian delivery bicycle" speed="5.56" length="3.80" shape="270.20,769.90 269.08,773.53"/>
    </edge>
    <edge id=":10100973759_1" function="internal">
        <lane id=":10100973759_1_0" index="0" allow="pedestrian delivery bicycle" speed="3.65" length="1.44" shape="270.20,769.90 269.08,770.81"/>
    </edge>
    <edge id=":10100973759_4" function="internal">
        <lane id=":10100973759_4_0" index="0" allow="pedestrian delivery bicycle" speed="3.65" length="3.23" shape="269.08,770.81 268.20,770.95 267.55,770.34 267.14,768.95"/>
    </edge>
    <edge id=":10100973759_2" function="internal">
        <lane id=":10100973759_2_0" index="0" allow="pedestrian delivery bicycle" speed="5.56" length="3.81" shape="266.02,772.59 267.14,768.95"/>
    </edge>
    <edge id=":10100973759_3" function="internal">
        <lane id=":10100973759_3_0" index="0" allow="pedestrian delivery bicycle" speed="3.65" length="1.44" shape="266.02,772.59 267.14,771.68"/>
    </edge>
    <edge id=":10100973759_5" function="internal">
        <lane id=":10100973759_5_0" index="0" allow="pedestrian delivery bicycle" speed="3.65" length="3.23" shape="267.14,771.68 268.02,771.53 268.67,772.15 269.08,773.53"/>
    </edge>
    <edge id=":10100973760_0" function="internal">
        <lane id=":10100973760_0_0" index="0" disallow="tram rail_urban rail rail_electric rail_fast ship" speed="5.56" length="3.51" shape="181.29,753.36 182.18,749.96"/>
    </edge>
    <edge id=":10100973760_1" function="internal">
        <lane id=":10100973760_1_0" index="0" disallow="tram rail_urban rail rail_electric rail_fast ship" speed="5.56" length="3.51" shape="185.27,750.77 184.39,754.16"/>
    </edge>
    <edge id=":10100973761_0" function="internal">
        <lane id=":10100973761_0_0" index="0" allow="pedestrian bus delivery bicycle" speed="5.56" length="5.05" shape="257.15,876.61 255.91,881.51"/>
    </edge>
    <edge id=":10100973763_0" function="internal">
        <lane id=":10100973763_0_0" index="0" allow="pedestrian bus delivery bicycle" speed="5.56" length="5.02" shape="251.99,875.25 250.72,880.10"/>
    </edge>
    <edge id=":10100973765_0" function="internal">
        <lane id=":10100973765_0_0" index="0" allow="pedestrian bus delivery bicycle" speed="5.56" length="5.07" shape="246.47,873.88 245.23,878.80"/>
    </edge>
    <edge id=":10100973766_0" function="internal">
        <lane id=":10100973766_0_0" index="0" disallow="tram rail_urban rail rail_electric rail_fast ship" speed="5.56" length="3.15" shape="160.88,844.47 160.09,847.52"/>
    </edge>
    <edge id=":10100973766_1" function="internal">
        <lane id=":10100973766_1_0" index="0" disallow="tram rail_urban rail rail_electric rail_fast ship" speed="5.56" length="3.15" shape="156.99,846.72 157.78,843.67"/>
    </edge>
    <edge id=":10100973770_0" function="internal">
        <lane id=":10100973770_0_0" index="0" allow="pedestrian delivery bicycle" speed="5.56" length="7.17" shape="242.76,870.74 242.68,872.85 242.38,874.27 241.91,875.67 241.30,877.71"/>
    </edge>
    <edge id=":10100973770_1" function="internal">
        <lane id=":10100973770_1_0" index="0" allow="pedestrian delivery bicycle" speed="3.69" length="1.36" shape="242.76,870.74 241.75,871.66"/>
    </edge>
    <edge id=":10100973770_4" function="internal">
        <lane id=":10100973770_4_0" index="0" allow="pedestrian delivery bicycle" speed="3.69" length="3.47" shape="241.75,871.66 241.65,871.74 240.75,871.94 240.05,871.34 239.55,869.93"/>
    </edge>
    <edge id=":10100973770_2" function="internal">
        <lane id=":10100973770_2_0" index="0" allow="pedestrian delivery bicycle" speed="5.56" length="7.13" shape="238.21,876.89 238.80,874.86 239.23,873.46 239.48,872.03 239.55,869.93"/>
    </edge>
    <edge id=":10100973770_3" function="internal">
        <lane id=":10100973770_3_0" index="0" allow="pedestrian delivery bicycle" speed="3.65" length="1.44" shape="238.21,876.89 239.29,875.94"/>
    </edge>
    <edge id=":10100973770_5" function="internal">
        <lane id=":10100973770_5_0" index="0" allow="pedestrian delivery bicycle" speed="3.65" length="3.23" shape="239.29,875.94 240.16,875.76 240.83,876.35 241.30,877.71"/>
    </edge>
    <edge id=":10100973774_0" function="internal">
        <lane id=":10100973774_0_0" index="0" allow="pedestrian bus delivery bicycle" speed="5.56" length="5.02" shape="263.70,878.38 262.49,883.26"/>
    </edge>
    <edge id=":10100973777_0" function="internal">
        <lane id=":10100973777_0_0" index="0" allow="pedestrian delivery bicycle" speed="5.56" length="3.15" shape="238.37,855.33 237.47,858.35"/>
    </edge>
    <edge id=":10100973777_1" function="internal">
        <lane id=":10100973777_1_0" index="0" allow="pedestrian delivery bicycle" speed="3.65" length="1.44" shape="238.37,855.33 237.26,856.25"/>
    </edge>
    <edge id=":10100973777_4" function="internal">
        <lane id=":10100973777_4_0" index="0" allow="pedestrian delivery bicycle" speed="3.65" length="3.23" shape="237.26,856.25 236.38,856.41 235.73,855.80 235.30,854.42"/>
    </edge>
    <edge id=":10100973777_2" function="internal">
        <lane id=":10100973777_2_0" index="0" allow="pedestrian delivery bicycle" speed="5.56" length="3.15" shape="234.40,857.44 235.30,854.42"/>
    </edge>
    <edge id=":10100973777_3" function="internal">
        <lane id=":10100973777_3_0" index="0" allow="pedestrian delivery bicycle" speed="3.65" length="1.44" shape="234.40,857.44 235.51,856.52"/>
    </edge>
    <edge id=":10100973777_5" function="internal">
        <lane id=":10100973777_5_0" index="0" allow="pedestrian delivery bicycle" speed="3.65" length="3.23" shape="235.51,856.52 236.40,856.36 237.05,856.98 237.47,858.35"/>
    </edge>
    <edge id=":10100973779_0" function="internal">
        <lane id=":10100973779_0_0" index="0" disallow="tram rail_urban rail rail_electric rail_fast ship" speed="5.56" length="3.03" shape="163.55,834.22 162.78,837.16"/>
    </edge>
    <edge id=":10100973779_1" function="internal">
        <lane id=":10100973779_1_0" index="0" disallow="tram rail_urban rail rail_electric rail_fast ship" speed="5.56" length="3.03" shape="159.69,836.35 160.45,833.42"/>
    </edge>
    <edge id=":10110500_0" function="internal">
        <lane id=":10110500_0_0" index="0" disallow="tram rail_urban rail rail_electric rail_fast ship" speed="6.42" length="9.04" shape="757.05,389.97 754.62,389.43 752.63,389.81 751.07,391.12 749.96,393.34"/>
    </edge>
    <edge id=":10110500_1" function="internal">
        <lane id=":10110500_1_0" index="0" disallow="tram rail_urban rail rail_electric rail_fast ship" speed="13.89" length="14.52" shape="757.05,389.97 743.27,385.38"/>
    </edge>
    <edge id=":10110500_2" function="internal">
        <lane id=":10110500_2_0" index="0" disallow="tram rail_urban rail rail_electric rail_fast ship" speed="8.05" length="14.29" shape="757.05,389.97 753.59,388.08 751.55,385.55 750.94,382.39 751.75,378.60"/>
    </edge>
    <edge id=":10110500_3" function="internal">
        <lane id=":10110500_3_0" index="0" disallow="tram rail_urban rail rail_electric rail_fast ship" speed="3.65" length="4.67" shape="757.05,389.97 756.21,388.80 756.12,387.91 756.78,387.30 758.18,386.98"/>
    </edge>
    <edge id=":10110500_4" function="internal">
        <lane id=":10110500_4_0" index="0" disallow="tram rail_urban rail rail_electric rail_fast ship" speed="6.56" length="9.15" shape="754.75,379.71 754.24,382.13 754.64,384.15 755.95,385.76 758.18,386.98"/>
    </edge>
    <edge id=":10110500_5" function="internal">
        <lane id=":10110500_5_0" index="0" disallow="tram rail_urban rail rail_electric rail_fast ship" speed="13.89" length="14.45" shape="754.75,379.71 749.96,393.34"/>
    </edge>
    <edge id=":10110500_6" function="internal">
        <lane id=":10110500_6_0" index="0" disallow="tram rail_urban rail rail_electric rail_fast ship" speed="8.27" length="3.87" shape="754.75,379.71 752.90,383.11"/>
    </edge>
    <edge id=":10110500_7" function="internal">
        <lane id=":10110500_7_0" index="0" disallow="tram rail_urban rail rail_electric rail_fast ship" speed="3.65" length="1.44" shape="754.75,379.71 753.58,380.55"/>
    </edge>
    <edge id=":10110500_16" function="internal">
        <lane id=":10110500_16_0" index="0" disallow="tram rail_urban rail rail_electric rail_fast ship" speed="8.27" length="10.51" shape="752.90,383.11 750.38,385.19 747.17,385.95 743.27,385.38"/>
    </edge>
    <edge id=":10110500_17" function="internal">
        <lane id=":10110500_17_0" index="0" disallow="tram rail_urban rail rail_electric rail_fast ship" speed="3.65" length="3.23" shape="753.58,380.55 752.69,380.65 752.08,380.00 751.75,378.60"/>
    </edge>
    <edge id=":10110500_8" function="internal">
        <lane id=":10110500_8_0" index="0" disallow="tram rail_urban rail rail_electric rail_fast ship" speed="6.82" length="9.48" shape="744.16,382.31 746.74,382.69 748.86,382.19 750.53,380.83 751.75,378.60"/>
    </edge>
    <edge id=":10110500_9" function="internal">
        <lane id=":10110500_9_0" index="0" disallow="tram rail_urban rail rail_electric rail_fast ship" speed="13.89" length="14.78" shape="744.16,382.31 758.18,386.98"/>
    </edge>
    <edge id=":10110500_10" function="internal">
        <lane id=":10110500_10_0" index="0" disallow="tram rail_urban rail rail_electric rail_fast ship" speed="7.93" length="14.35" shape="744.16,382.31 747.76,383.94 749.93,386.32 750.66,389.45 749.96,393.34"/>
    </edge>
    <edge id=":10110500_11" function="internal">
        <lane id=":10110500_11_0" index="0" disallow="tram rail_urban rail rail_electric rail_fast ship" speed="3.65" length="4.67" shape="744.16,382.31 745.09,383.41 745.25,384.29 744.65,384.95 743.27,385.38"/>
    </edge>
    <edge id=":10110500_12" function="internal">
        <lane id=":10110500_12_0" index="0" disallow="tram rail_urban rail rail_electric rail_fast ship" speed="6.42" length="9.04" shape="746.92,392.33 747.37,389.88 746.91,387.91 745.54,386.41 743.27,385.38"/>
    </edge>
    <edge id=":10110500_13" function="internal">
        <lane id=":10110500_13_0" index="0" disallow="tram rail_urban rail rail_electric rail_fast ship" speed="13.89" length="14.56" shape="746.92,392.33 751.75,378.60"/>
    </edge>
    <edge id=":10110500_14" function="internal">
        <lane id=":10110500_14_0" index="0" disallow="tram rail_urban rail rail_electric rail_fast ship" speed="7.93" length="4.22" shape="746.92,392.33 748.69,388.80 748.90,388.62"/>
    </edge>
    <edge id=":10110500_15" function="internal">
        <lane id=":10110500_15_0" index="0" disallow="tram rail_urban rail rail_electric rail_fast ship" speed="3.65" length="1.44" shape="746.92,392.33 748.06,391.45"/>
    </edge>
    <edge id=":10110500_18" function="internal">
        <lane id=":10110500_18_0" index="0" disallow="tram rail_urban rail rail_electric rail_fast ship" speed="7.93" length="10.12" shape="748.90,388.62 751.16,386.73 754.32,386.12 758.18,386.98"/>
    </edge>
    <edge id=":10110500_19" function="internal">
        <lane id=":10110500_19_0" index="0" disallow="tram rail_urban rail rail_electric rail_fast ship" speed="3.65" length="3.23" shape="748.06,391.45 748.95,391.32 749.58,391.95 749.96,393.34"/>
    </edge>
    <edge id=":10110504_0" function="internal">
        <lane id=":10110504_0_0" index="0" disallow="tram rail_urban rail rail_electric rail_fast ship" speed="6.66" length="9.06" shape="624.02,354.01 621.53,354.07 619.61,354.88 618.27,356.44 617.51,358.74"/>
    </edge>
    <edge id=":10110504_1" function="internal">
        <lane id=":10110504_1_0" index="0" disallow="tram rail_urban rail rail_electric rail_fast ship" speed="8.00" length="14.05" shape="624.02,354.01 620.30,353.04 617.76,351.12 616.41,348.24 616.25,344.40"/>
    </edge>
    <edge id=":10110504_2" function="internal">
        <lane id=":10110504_2_0" index="0" disallow="tram rail_urban rail rail_electric rail_fast ship" speed="3.65" length="4.67" shape="624.02,354.01 622.92,353.08 622.61,352.24 623.10,351.49 624.38,350.83"/>
    </edge>
    <edge id=":10110504_3" function="internal">
        <lane id=":10110504_3_0" index="0" disallow="tram rail_urban rail rail_electric rail_fast ship" speed="6.51" length="8.94" shape="619.43,344.71 619.54,347.15 620.40,348.99 622.01,350.21 624.38,350.83"/>
    </edge>
    <edge id=":10110504_4" function="internal">
        <lane id=":10110504_4_0" index="0" disallow="tram rail_urban rail rail_electric rail_fast ship" speed="13.89" length="14.16" shape="619.43,344.71 617.51,358.74"/>
    </edge>
    <edge id=":10110504_5" function="internal">
        <lane id=":10110504_5_0" index="0" disallow="tram rail_urban rail rail_electric rail_fast ship" speed="3.65" length="1.44" shape="619.43,344.71 618.52,345.83"/>
    </edge>
    <edge id=":10110504_12" function="internal">
        <lane id=":10110504_12_0" index="0" disallow="tram rail_urban rail rail_electric rail_fast ship" speed="3.65" length="3.23" shape="618.52,345.83 617.68,346.15 616.93,345.67 616.25,344.40"/>
    </edge>
    <edge id=":10110504_6" function="internal">
        <lane id=":10110504_6_0" index="0" allow="pedestrian delivery bicycle" speed="8.24" length="10.63" shape="611.51,353.29 613.30,352.29 614.68,350.47 615.67,347.84 616.25,344.40"/>
    </edge>
    <edge id=":10110504_7" function="internal">
        <lane id=":10110504_7_0" index="0" allow="pedestrian delivery bicycle" speed="9.72" length="13.21" shape="611.51,353.29 614.84,352.22 617.88,351.31 620.95,350.77 624.38,350.83"/>
    </edge>
    <edge id=":10110504_8" function="internal">
        <lane id=":10110504_8_0" index="0" allow="pedestrian delivery bicycle" speed="6.14" length="10.75" shape="611.51,353.29 614.64,352.81 616.68,353.56 617.64,355.54 617.51,358.74"/>
    </edge>
    <edge id=":10110504_9" function="internal">
        <lane id=":10110504_9_0" index="0" disallow="tram rail_urban rail rail_electric rail_fast ship" speed="13.89" length="13.92" shape="614.36,358.19 616.25,344.40"/>
    </edge>
    <edge id=":10110504_10" function="internal">
        <lane id=":10110504_10_0" index="0" disallow="tram rail_urban rail rail_electric rail_fast ship" speed="8.13" length="3.77" shape="614.36,358.19 615.53,354.60"/>
    </edge>
    <edge id=":10110504_11" function="internal">
        <lane id=":10110504_11_0" index="0" disallow="tram rail_urban rail rail_electric rail_fast ship" speed="3.65" length="1.44" shape="614.36,358.19 615.35,357.14"/>
    </edge>
    <edge id=":10110504_13" function="internal">
        <lane id=":10110504_13_0" index="0" disallow="tram rail_urban rail rail_electric rail_fast ship" speed="8.13" length="10.22" shape="615.53,354.60 617.60,352.18 620.55,350.93 624.38,350.83"/>
    </edge>
    <edge id=":10110504_14" function="internal">
        <lane id=":10110504_14_0" index="0" disallow="tram rail_urban rail rail_electric rail_fast ship" speed="3.65" length="3.23" shape="615.35,357.14 616.21,356.89 616.93,357.42 617.51,358.74"/>
    </edge>
    <edge id=":10180296_0" function="internal">
        <lane id=":10180296_0_0" index="0" allow="pedestrian bicycle" speed="5.56" length="4.26" width="2.00" shape="263.02,1095.03 262.06,1099.18"/>
    </edge>
    <edge id=":10180296_1" function="internal">
        <lane id=":10180296_1_0" index="0" allow="pedestrian bicycle" speed="5.00" length="5.31" width="2.00" shape="263.02,1095.03 262.55,1095.74 261.58,1096.09 260.13,1096.08 258.20,1095.70"/>
    </edge>
    <edge id=":10180296_2" function="internal">
        <lane id=":10180296_2_0" index="0" allow="pedestrian bicycle" speed="2.89" length="2.92" width="2.00" shape="263.02,1095.03 262.35,1095.63 261.80,1095.75 261.38,1095.38 261.08,1094.53"/>
    </edge>
    <edge id=":10180296_3" function="internal">
        <lane id=":10180296_3_0" index="0" allow="pedestrian bicycle" speed="3.81" length="2.80" width="2.00" shape="258.70,1093.76 259.44,1094.12 260.16,1094.60 260.74,1094.85 261.08,1094.53"/>
    </edge>
    <edge id=":10180296_4" function="internal">
        <lane id=":10180296_4_0" index="0" allow="pedestrian bicycle" speed="5.56" length="7.22" width="2.00" shape="258.70,1093.76 260.53,1094.52 261.70,1095.67 262.21,1097.23 262.06,1099.18"/>
    </edge>
    <edge id=":10180296_5" function="internal">
        <lane id=":10180296_5_0" index="0" allow="pedestrian bicycle" speed="2.89" length="2.92" width="2.00" shape="258.70,1093.76 259.30,1094.43 259.42,1094.98 259.05,1095.40 258.20,1095.70"/>
    </edge>
    <edge id=":10180296_6" function="internal">
        <lane id=":10180296_6_0" index="0" allow="pedestrian bicycle" speed="4.50" length="4.07" width="2.00" shape="260.11,1098.74 260.19,1097.65 259.90,1096.77 259.24,1096.12 258.20,1095.70"/>
    </edge>
    <edge id=":10180296_7" function="internal">
        <lane id=":10180296_7_0" index="0" allow="pedestrian bicycle" speed="5.56" length="4.32" width="2.00" shape="260.11,1098.74 261.08,1094.53"/>
    </edge>
    <edge id=":10180296_8" function="internal">
        <lane id=":10180296_8_0" index="0" allow="pedestrian bicycle" speed="2.89" length="2.92" width="2.00" shape="260.11,1098.74 260.76,1098.12 261.30,1097.98 261.74,1098.34 262.06,1099.18"/>
    </edge>
    <edge id=":10180298_0" function="internal">
        <lane id=":10180298_0_0" index="0" allow="pedestrian bicycle" speed="5.56" length="5.01" width="2.00" shape="319.17,878.67 317.89,883.51"/>
    </edge>
    <edge id=":10180298_1" function="internal">
        <lane id=":10180298_1_0" index="0" allow="pedestrian bicycle" speed="2.89" length="2.38" width="2.00" shape="319.17,878.67 318.49,879.26 317.95,879.37 317.53,879.00 317.41,878.66"/>
    </edge>
    <edge id=":10180298_4" function="internal">
        <lane id=":10180298_4_0" index="0" allow="pedestrian bicycle" speed="2.89" length="0.54" width="2.00" shape="317.41,878.66 317.24,878.15"/>
    </edge>
    <edge id=":10180298_2" function="internal">
        <lane id=":10180298_2_0" index="0" allow="pedestrian bicycle" speed="5.56" length="5.02" width="2.00" shape="315.95,883.00 317.24,878.15"/>
    </edge>
    <edge id=":10180298_3" function="internal">
        <lane id=":10180298_3_0" index="0" allow="pedestrian bicycle" speed="2.89" length="2.40" width="2.00" shape="315.95,883.00 316.63,882.40 317.17,882.29 317.60,882.65 317.72,883.01"/>
    </edge>
    <edge id=":10180298_5" function="internal">
        <lane id=":10180298_5_0" index="0" allow="pedestrian bicycle" speed="2.89" length="0.52" width="2.00" shape="317.72,883.01 317.89,883.51"/>
    </edge>
    <edge id=":10180300_0" function="internal">
        <lane id=":10180300_0_0" index="0" allow="pedestrian bicycle" speed="5.56" length="7.52" width="2.00" shape="343.11,782.61 342.42,784.67 341.56,785.94 340.33,786.94 338.50,788.23"/>
    </edge>
    <edge id=":10180300_1" function="internal">
        <lane id=":10180300_1_0" index="0" allow="pedestrian bicycle" speed="2.89" length="2.92" width="2.00" shape="343.11,782.61 342.44,783.21 341.89,783.33 341.47,782.96 341.18,782.11"/>
    </edge>
    <edge id=":10180300_2" function="internal">
        <lane id=":10180300_2_0" index="0" allow="pedestrian bicycle" speed="5.56" length="6.15" width="2.00" shape="337.32,786.62 338.83,785.58 339.87,784.78 340.59,783.78 341.18,782.11"/>
    </edge>
    <edge id=":10180300_3" function="internal">
        <lane id=":10180300_3_0" index="0" allow="pedestrian bicycle" speed="2.89" length="2.92" width="2.00" shape="337.32,786.62 338.22,786.58 338.72,786.84 338.81,787.39 338.50,788.23"/>
    </edge>
    <edge id=":10180301_0" function="internal">
        <lane id=":10180301_0_0" index="0" disallow="tram rail_urban rail rail_electric rail_fast ship" speed="6.49" length="9.03" shape="503.80,820.06 503.51,822.52 504.09,824.47 505.52,825.92 507.81,826.86"/>
    </edge>
    <edge id=":10180301_1" function="internal">
        <lane id=":10180301_1_0" index="0" disallow="tram rail_urban rail rail_electric rail_fast ship" speed="8.33" length="11.23" shape="503.80,820.06 500.93,830.92"/>
    </edge>
    <edge id=":10180301_2" function="internal">
        <lane id=":10180301_2_0" index="0" disallow="tram rail_urban rail rail_electric rail_fast ship" speed="8.33" length="11.23" shape="496.92,824.11 507.81,826.86"/>
    </edge>
    <edge id=":10180301_3" function="internal">
        <lane id=":10180301_3_0" index="0" disallow="tram rail_urban rail rail_electric rail_fast ship" speed="6.48" length="9.03" shape="496.92,824.11 499.22,825.05 500.65,826.50 501.22,828.45 500.93,830.92"/>
    </edge>
    <edge id=":10180303_0" function="internal">
        <lane id=":10180303_0_0" index="0" disallow="tram rail_urban rail rail_electric rail_fast ship" speed="8.33" length="5.03" shape="477.09,921.13 475.76,925.98"/>
    </edge>
    <edge id=":10298162_0" function="internal">
        <lane id=":10298162_0_0" index="0" disallow="tram rail_urban rail rail_electric rail_fast ship" speed="5.56" length="14.14" shape="88.18,1149.62 84.61,1148.12 82.37,1145.84 81.46,1142.77 81.88,1138.92"/>
    </edge>
    <edge id=":10298162_1" function="internal">
        <lane id=":10298162_1_0" index="0" disallow="tram rail_urban rail rail_electric rail_fast ship" speed="5.56" length="9.00" shape="84.98,1139.72 84.72,1142.17 85.29,1144.12 86.72,1145.57 88.99,1146.53"/>
    </edge>
    <edge id=":10298164_0" function="internal">
        <lane id=":10298164_0_0" index="0" disallow="tram rail_urban rail rail_electric rail_fast ship" speed="2.78" length="7.03" shape="241.39,1189.75 234.58,1187.97"/>
    </edge>
    <edge id=":10298164_1" function="internal">
        <lane id=":10298164_1_0" index="0" allow="pedestrian bicycle" speed="4.17" length="2.36" width="2.00" shape="241.39,1189.75 239.58,1188.87 239.38,1188.59"/>
    </edge>
    <edge id=":10298164_7" function="internal">
        <lane id=":10298164_7_0" index="0" allow="pedestrian bicycle" speed="4.17" length="6.42" width="2.00" shape="239.38,1188.59 238.51,1187.37 238.18,1185.25 238.59,1182.50"/>
    </edge>
    <edge id=":10298164_2" function="internal">
        <lane id=":10298164_2_0" index="0" allow="pedestrian bicycle" speed="4.17" length="4.56" shape="240.53,1183.00 240.34,1184.36 240.56,1185.42 241.18,1186.19 242.20,1186.66"/>
    </edge>
    <edge id=":10298164_3" function="internal">
        <lane id=":10298164_3_0" index="0" allow="pedestrian bicycle" speed="4.17" length="8.77" shape="240.53,1183.00 239.57,1185.60 238.26,1187.30 236.60,1188.09 234.58,1187.97"/>
    </edge>
    <edge id=":10298164_4" function="internal">
        <lane id=":10298164_4_0" index="0" allow="pedestrian bicycle" speed="2.89" length="2.92" width="2.00" shape="240.53,1183.00 239.86,1183.60 239.31,1183.72 238.89,1183.35 238.59,1182.50"/>
    </edge>
    <edge id=":10298164_5" function="internal">
        <lane id=":10298164_5_0" index="0" allow="pedestrian bicycle" speed="4.17" length="4.53" width="2.00" shape="235.40,1184.87 236.50,1184.96 237.41,1184.60 238.10,1183.78 238.59,1182.50"/>
    </edge>
    <edge id=":10298164_6" function="internal">
        <lane id=":10298164_6_0" index="0" disallow="tram rail_urban rail rail_electric rail_fast ship" speed="2.78" length="7.03" shape="235.40,1184.87 242.20,1186.66"/>
    </edge>
    <edge id=":10298165_0" function="internal">
        <lane id=":10298165_0_0" index="0" disallow="tram rail_urban rail rail_electric rail_fast ship" speed="6.54" length="9.11" shape="573.46,996.95 573.06,996.28 573.09,994.58 573.54,991.85 574.41,988.09"/>
    </edge>
    <edge id=":10298165_1" function="internal">
        <lane id=":10298165_1_0" index="0" disallow="tram rail_urban rail rail_electric rail_fast ship" speed="3.65" length="4.67" shape="573.46,996.95 572.50,995.87 572.31,995.00 572.90,994.32 574.26,993.85"/>
    </edge>
    <edge id=":10298165_2" function="internal">