[General]
network = Network 
sim-time-limit = 2s
simtime-resolution = ps
Network.cmodule[0].isMaster = true
Network.cmodule[1].isMaster = false
Network.cmodule[2].isMaster = false
record-eventlog=true
