<?xml version="1.0"?>
<!-- generated on 2012-06-29 16:49:20.670348 by $Id$ -->
<routes>

<vTypeDistribution>
<vType id="truck0_0" accel="0.74" decel="5.98" sigma="0.74" length="7.94" minGap="1.05" maxSpeed="27.00" vClass="transport" guiShape="transport" probability="0.01" />
<vType id="truck0_1" accel="0.73" decel="5.95" sigma="0.64" length="8.34" minGap="0.96" maxSpeed="27.02" vClass="transport" guiShape="transport" probability="0.01" />
<vType id="truck0_2" accel="0.72" decel="5.14" sigma="0.67" length="7.92" minGap="1.03" maxSpeed="26.92" vClass="transport" guiShape="transport" probability="0.01" />
<vType id="truck0_3" accel="0.69" decel="5.49" sigma="0.69" length="7.59" minGap="0.98" maxSpeed="27.04" vClass="transport" guiShape="transport" probability="0.01" />
<vType id="truck0_4" accel="0.76" decel="5.25" sigma="0.61" length="7.85" minGap="1.05" maxSpeed="27.03" vClass="transport" guiShape="transport" probability="0.01" />
<vType id="truck0_5" accel="0.72" decel="5.58" sigma="0.57" length="7.98" minGap="1.08" maxSpeed="27.04" vClass="transport" guiShape="transport" probability="0.01" />
<vType id="truck0_6" accel="0.79" decel="5.12" sigma="0.57" length="7.92" minGap="1.04" maxSpeed="26.91" vClass="transport" guiShape="transport" probability="0.01" />
<vType id="truck0_7" accel="0.79" decel="5.76" sigma="0.58" length="8.02" minGap="0.91" maxSpeed="27.02" vClass="transport" guiShape="transport" probability="0.01" />
<vType id="truck0_8" accel="0.72" decel="5.63" sigma="0.62" length="8.31" minGap="1.05" maxSpeed="26.99" vClass="transport" guiShape="transport" probability="0.01" />
<vType id="truck0_9" accel="0.75" decel="5.03" sigma="0.70" length="7.91" minGap="0.99" maxSpeed="27.05" vClass="transport" guiShape="transport" probability="0.01" />
<vType id="truck1_0" accel="0.60" decel="4.50" sigma="0.75" length="16.86" minGap="1.00" maxSpeed="28.98" vClass="transport" guiShape="transport/semitrailer" probability="0.01" />
<vType id="truck1_1" accel="0.60" decel="4.50" sigma="0.75" length="16.04" minGap="1.00" maxSpeed="29.08" vClass="transport" guiShape="transport/semitrailer" probability="0.01" />
<vType id="truck1_2" accel="0.60" decel="4.50" sigma="0.75" length="16.02" minGap="1.00" maxSpeed="28.91" vClass="transport" guiShape="transport/semitrailer" probability="0.01" />
<vType id="truck1_3" accel="0.60" decel="4.50" sigma="0.75" length="16.09" minGap="1.00" maxSpeed="29.02" vClass="transport" guiShape="transport/semitrailer" probability="0.01" />
<vType id="truck1_4" accel="0.60" decel="4.50" sigma="0.75" length="16.40" minGap="1.00" maxSpeed="28.99" vClass="transport" guiShape="transport/semitrailer" probability="0.01" />
<vType id="truck1_5" accel="0.60" decel="4.50" sigma="0.75" length="16.04" minGap="1.00" maxSpeed="29.08" vClass="transport" guiShape="transport/semitrailer" probability="0.01" />
<vType id="truck1_6" accel="0.60" decel="4.50" sigma="0.75" length="16.64" minGap="1.00" maxSpeed="28.95" vClass="transport" guiShape="transport/semitrailer" probability="0.01" />
<vType id="truck1_7" accel="0.60" decel="4.50" sigma="0.75" length="16.32" minGap="1.00" maxSpeed="29.04" vClass="transport" guiShape="transport/semitrailer" probability="0.01" />
<vType id="truck1_8" accel="0.60" decel="4.50" sigma="0.75" length="16.97" minGap="1.00" maxSpeed="28.96" vClass="transport" guiShape="transport/semitrailer" probability="0.01" />
<vType id="truck1_9" accel="0.60" decel="4.50" sigma="0.75" length="16.56" minGap="1.00" maxSpeed="29.00" vClass="transport" guiShape="transport/semitrailer" probability="0.01" />
<vType id="truck2_0" accel="0.50" decel="3.50" sigma="0.85" length="18.56" minGap="1.00" maxSpeed="32.94" vClass="transport" guiShape="transport/trailer" probability="0.01" />
<vType id="truck2_1" accel="0.50" decel="3.50" sigma="0.85" length="18.75" minGap="1.00" maxSpeed="32.99" vClass="transport" guiShape="transport/trailer" probability="0.01" />
<vType id="truck2_2" accel="0.50" decel="3.50" sigma="0.85" length="18.79" minGap="1.00" maxSpeed="33.06" vClass="transport" guiShape="transport/trailer" probability="0.01" />
<vType id="truck2_3" accel="0.50" decel="3.50" sigma="0.85" length="18.95" minGap="1.00" maxSpeed="32.97" vClass="transport" guiShape="transport/trailer" probability="0.01" />
<vType id="truck2_4" accel="0.50" decel="3.50" sigma="0.85" length="18.82" minGap="1.00" maxSpeed="33.06" vClass="transport" guiShape="transport/trailer" probability="0.01" />
<vType id="truck2_5" accel="0.50" decel="3.50" sigma="0.85" length="18.98" minGap="1.00" maxSpeed="33.02" vClass="transport" guiShape="transport/trailer" probability="0.01" />
<vType id="truck2_6" accel="0.50" decel="3.50" sigma="0.85" length="19.09" minGap="1.00" maxSpeed="33.04" vClass="transport" guiShape="transport/trailer" probability="0.01" />
<vType id="truck2_7" accel="0.50" decel="3.50" sigma="0.85" length="18.79" minGap="1.00" maxSpeed="33.07" vClass="transport" guiShape="transport/trailer" probability="0.01" />
<vType id="truck2_8" accel="0.50" decel="3.50" sigma="0.85" length="18.48" minGap="1.00" maxSpeed="32.98" vClass="transport" guiShape="transport/trailer" probability="0.01" />
<vType id="truck2_9" accel="0.50" decel="3.50" sigma="0.85" length="18.70" minGap="1.00" maxSpeed="32.99" vClass="transport" guiShape="transport/trailer" probability="0.01" />
<vType id="truck2_10" accel="0.50" decel="3.50" sigma="0.85" length="18.97" minGap="1.00" maxSpeed="33.09" vClass="transport" guiShape="transport/trailer" probability="0.01" />
<vType id="truck2_11" accel="0.50" decel="3.50" sigma="0.85" length="19.03" minGap="1.00" maxSpeed="32.97" vClass="transport" guiShape="transport/trailer" probability="0.01" />
<vType id="truck2_12" accel="0.50" decel="3.50" sigma="0.85" length="18.73" minGap="1.00" maxSpeed="32.99" vClass="transport" guiShape="transport/trailer" probability="0.01" />
<vType id="truck2_13" accel="0.50" decel="3.50" sigma="0.85" length="18.38" minGap="1.00" maxSpeed="33.08" vClass="transport" guiShape="transport/trailer" probability="0.01" />
<vType id="truck2_14" accel="0.50" decel="3.50" sigma="0.85" length="18.58" minGap="1.00" maxSpeed="33.08" vClass="transport" guiShape="transport/trailer" probability="0.01" />
<vType id="truck2_15" accel="0.50" decel="3.50" sigma="0.85" length="19.25" minGap="1.00" maxSpeed="33.00" vClass="transport" guiShape="transport/trailer" probability="0.01" />
<vType id="truck2_16" accel="0.50" decel="3.50" sigma="0.85" length="18.41" minGap="1.00" maxSpeed="32.97" vClass="transport" guiShape="transport/trailer" probability="0.01" />
<vType id="truck2_17" accel="0.50" decel="3.50" sigma="0.85" length="19.09" minGap="1.00" maxSpeed="33.06" vClass="transport" guiShape="transport/trailer" probability="0.01" />
<vType id="truck2_18" accel="0.50" decel="3.50" sigma="0.85" length="18.62" minGap="1.00" maxSpeed="33.07" vClass="transport" guiShape="transport/trailer" probability="0.01" />
<vType id="truck2_19" accel="0.50" decel="3.50" sigma="0.85" length="18.33" minGap="1.00" maxSpeed="33.03" vClass="transport" guiShape="transport/trailer" probability="0.01" />
<vType id="car0_0" accel="0.70" decel="3.50" sigma="0.35" length="4.68" minGap="1.00" maxSpeed="36.07" vClass="passenger" guiShape="passenger" probability="0.01" />
<vType id="car0_1" accel="0.70" decel="3.50" sigma="0.35" length="4.42" minGap="1.00" maxSpeed="35.91" vClass="passenger" guiShape="passenger" probability="0.01" />
<vType id="car0_2" accel="0.70" decel="3.50" sigma="0.35" length="4.03" minGap="1.00" maxSpeed="35.94" vClass="passenger" guiShape="passenger" probability="0.01" />
<vType id="car0_3" accel="0.70" decel="3.50" sigma="0.35" length="4.40" minGap="1.00" maxSpeed="35.93" vClass="passenger" guiShape="passenger" probability="0.01" />
<vType id="car0_4" accel="0.70" decel="3.50" sigma="0.35" length="4.18" minGap="1.00" maxSpeed="35.90" vClass="passenger" guiShape="passenger" probability="0.01" />
<vType id="car0_5" accel="0.70" decel="3.50" sigma="0.35" length="4.86" minGap="1.00" maxSpeed="36.06" vClass="passenger" guiShape="passenger" probability="0.01" />
<vType id="car0_6" accel="0.70" decel="3.50" sigma="0.35" length="4.08" minGap="1.00" maxSpeed="35.95" vClass="passenger" guiShape="passenger" probability="0.01" />
<vType id="car0_7" accel="0.70" decel="3.50" sigma="0.35" length="4.10" minGap="1.00" maxSpeed="36.01" vClass="passenger" guiShape="passenger" probability="0.01" />
<vType id="car0_8" accel="0.70" decel="3.50" sigma="0.35" length="4.49" minGap="1.00" maxSpeed="35.95" vClass="passenger" guiShape="passenger" probability="0.01" />
<vType id="car0_9" accel="0.70" decel="3.50" sigma="0.35" length="4.60" minGap="1.00" maxSpeed="35.95" vClass="passenger" guiShape="passenger" probability="0.01" />
<vType id="car0_10" accel="0.70" decel="3.50" sigma="0.35" length="4.52" minGap="1.00" maxSpeed="36.00" vClass="passenger" guiShape="passenger" probability="0.01" />
<vType id="car0_11" accel="0.70" decel="3.50" sigma="0.35" length="4.71" minGap="1.00" maxSpeed="35.97" vClass="passenger" guiShape="passenger" probability="0.01" />
<vType id="car0_12" accel="0.70" decel="3.50" sigma="0.35" length="4.58" minGap="1.00" maxSpeed="35.90" vClass="passenger" guiShape="passenger" probability="0.01" />
<vType id="car0_13" accel="0.70" decel="3.50" sigma="0.35" length="4.59" minGap="1.00" maxSpeed="36.08" vClass="passenger" guiShape="passenger" probability="0.01" />
<vType id="car0_14" accel="0.70" decel="3.50" sigma="0.35" length="3.94" minGap="1.00" maxSpeed="36.06" vClass="passenger" guiShape="passenger" probability="0.01" />
<vType id="car0_15" accel="0.70" decel="3.50" sigma="0.35" length="4.34" minGap="1.00" maxSpeed="35.98" vClass="passenger" guiShape="passenger" probability="0.01" />
<vType id="car0_16" accel="0.70" decel="3.50" sigma="0.35" length="4.68" minGap="1.00" maxSpeed="36.09" vClass="passenger" guiShape="passenger" probability="0.01" />
<vType id="car0_17" accel="0.70" decel="3.50" sigma="0.35" length="4.60" minGap="1.00" maxSpeed="36.10" vClass="passenger" guiShape="passenger" probability="0.01" />
<vType id="car0_18" accel="0.70" decel="3.50" sigma="0.35" length="4.82" minGap="1.00" maxSpeed="36.08" vClass="passenger" guiShape="passenger" probability="0.01" />
<vType id="car0_19" accel="0.70" decel="3.50" sigma="0.35" length="4.74" minGap="1.00" maxSpeed="36.06" vClass="passenger" guiShape="passenger" probability="0.01" />
<vType id="car0_20" accel="0.70" decel="3.50" sigma="0.35" length="4.33" minGap="1.00" maxSpeed="36.06" vClass="passenger" guiShape="passenger" probability="0.01" />
<vType id="car0_21" accel="0.70" decel="3.50" sigma="0.35" length="4.45" minGap="1.00" maxSpeed="35.99" vClass="passenger" guiShape="passenger" probability="0.01" />
<vType id="car0_22" accel="0.70" decel="3.50" sigma="0.35" length="4.28" minGap="1.00" maxSpeed="36.03" vClass="passenger" guiShape="passenger" probability="0.01" />
<vType id="car0_23" accel="0.70" decel="3.50" sigma="0.35" length="4.30" minGap="1.00" maxSpeed="36.00" vClass="passenger" guiShape="passenger" probability="0.01" />
<vType id="car0_24" accel="0.70" decel="3.50" sigma="0.35" length="4.70" minGap="1.00" maxSpeed="36.06" vClass="passenger" guiShape="passenger" probability="0.01" />
<vType id="car0_25" accel="0.70" decel="3.50" sigma="0.35" length="4.09" minGap="1.00" maxSpeed="35.94" vClass="passenger" guiShape="passenger" probability="0.01" />
<vType id="car0_26" accel="0.70" decel="3.50" sigma="0.35" length="4.66" minGap="1.00" maxSpeed="36.04" vClass="passenger" guiShape="passenger" probability="0.01" />
<vType id="car0_27" accel="0.70" decel="3.50" sigma="0.35" length="4.05" minGap="1.00" maxSpeed="35.96" vClass="passenger" guiShape="passenger" probability="0.01" />
<vType id="car0_28" accel="0.70" decel="3.50" sigma="0.35" length="4.07" minGap="1.00" maxSpeed="35.95" vClass="passenger" guiShape="passenger" probability="0.01" />
<vType id="car0_29" accel="0.70" decel="3.50" sigma="0.35" length="4.68" minGap="1.00" maxSpeed="35.94" vClass="passenger" guiShape="passenger" probability="0.01" />
<vType id="car0_30" accel="0.70" decel="3.50" sigma="0.35" length="4.02" minGap="1.00" maxSpeed="35.99" vClass="passenger" guiShape="passenger" probability="0.01" />
<vType id="car0_31" accel="0.70" decel="3.50" sigma="0.35" length="4.59" minGap="1.00" maxSpeed="36.02" vClass="passenger" guiShape="passenger" probability="0.01" />
<vType id="car0_32" accel="0.70" decel="3.50" sigma="0.35" length="4.08" minGap="1.00" maxSpeed="36.09" vClass="passenger" guiShape="passenger" probability="0.01" />
<vType id="car0_33" accel="0.70" decel="3.50" sigma="0.35" length="4.36" minGap="1.00" maxSpeed="35.99" vClass="passenger" guiShape="passenger" probability="0.01" />
<vType id="car0_34" accel="0.70" decel="3.50" sigma="0.35" length="4.89" minGap="1.00" maxSpeed="35.96" vClass="passenger" guiShape="passenger" probability="0.01" />
<vType id="car0_35" accel="0.70" decel="3.50" sigma="0.35" length="4.48" minGap="1.00" maxSpeed="35.94" vClass="passenger" guiShape="passenger" probability="0.01" />
<vType id="car0_36" accel="0.70" decel="3.50" sigma="0.35" length="4.87" minGap="1.00" maxSpeed="35.92" vClass="passenger" guiShape="passenger" probability="0.01" />
<vType id="car0_37" accel="0.70" decel="3.50" sigma="0.35" length="4.40" minGap="1.00" maxSpeed="36.02" vClass="passenger" guiShape="passenger" probability="0.01" />
<vType id="car0_38" accel="0.70" decel="3.50" sigma="0.35" length="4.80" minGap="1.00" maxSpeed="35.93" vClass="passenger" guiShape="passenger" probability="0.01" />
<vType id="car0_39" accel="0.70" decel="3.50" sigma="0.35" length="4.69" minGap="1.00" maxSpeed="35.99" vClass="passenger" guiShape="passenger" probability="0.01" />
<vType id="car1_0" accel="0.90" decel="4.50" sigma="0.55" length="4.00" minGap="1.00" maxSpeed="44.07" vClass="passenger" guiShape="passenger/van" probability="0.01" />
<vType id="car1_1" accel="0.90" decel="4.50" sigma="0.55" length="4.89" minGap="1.00" maxSpeed="44.09" vClass="passenger" guiShape="passenger/van" probability="0.01" />
<vType id="car1_2" accel="0.90" decel="4.50" sigma="0.55" length="4.22" minGap="1.00" maxSpeed="44.08" vClass="passenger" guiShape="passenger/van" probability="0.01" />
<vType id="car1_3" accel="0.90" decel="4.50" sigma="0.55" length="4.08" minGap="1.00" maxSpeed="44.02" vClass="passenger" guiShape="passenger/van" probability="0.01" />
<vType id="car1_4" accel="0.90" decel="4.50" sigma="0.55" length="4.88" minGap="1.00" maxSpeed="44.05" vClass="passenger" guiShape="passenger/van" probability="0.01" />
<vType id="car1_5" accel="0.90" decel="4.50" sigma="0.55" length="4.63" minGap="1.00" maxSpeed="43.94" vClass="passenger" guiShape="passenger/van" probability="0.01" />
<vType id="car1_6" accel="0.90" decel="4.50" sigma="0.55" length="4.88" minGap="1.00" maxSpeed="44.01" vClass="passenger" guiShape="passenger/van" probability="0.01" />
<vType id="car1_7" accel="0.90" decel="4.50" sigma="0.55" length="4.23" minGap="1.00" maxSpeed="44.02" vClass="passenger" guiShape="passenger/van" probability="0.01" />
<vType id="car1_8" accel="0.90" decel="4.50" sigma="0.55" length="4.71" minGap="1.00" maxSpeed="43.97" vClass="passenger" guiShape="passenger/van" probability="0.01" />
<vType id="car1_9" accel="0.90" decel="4.50" sigma="0.55" length="4.68" minGap="1.00" maxSpeed="43.99" vClass="passenger" guiShape="passenger/van" probability="0.01" />
<vType id="car1_10" accel="0.90" decel="4.50" sigma="0.55" length="4.43" minGap="1.00" maxSpeed="43.91" vClass="passenger" guiShape="passenger/van" probability="0.01" />
<vType id="car1_11" accel="0.90" decel="4.50" sigma="0.55" length="4.47" minGap="1.00" maxSpeed="43.99" vClass="passenger" guiShape="passenger/van" probability="0.01" />
<vType id="car1_12" accel="0.90" decel="4.50" sigma="0.55" length="4.07" minGap="1.00" maxSpeed="44.00" vClass="passenger" guiShape="passenger/van" probability="0.01" />
<vType id="car1_13" accel="0.90" decel="4.50" sigma="0.55" length="4.79" minGap="1.00" maxSpeed="43.91" vClass="passenger" guiShape="passenger/van" probability="0.01" />
<vType id="car1_14" accel="0.90" decel="4.50" sigma="0.55" length="4.34" minGap="1.00" maxSpeed="44.09" vClass="passenger" guiShape="passenger/van" probability="0.01" />
<vType id="car2_0" accel="0.90" decel="4.50" sigma="0.55" length="4.20" minGap="1.00" maxSpeed="49.91" vClass="passenger" guiShape="passenger" probability="0.01" />
<vType id="car2_1" accel="0.90" decel="4.50" sigma="0.55" length="4.31" minGap="1.00" maxSpeed="49.98" vClass="passenger" guiShape="passenger" probability="0.01" />
<vType id="car2_2" accel="0.90" decel="4.50" sigma="0.55" length="4.73" minGap="1.00" maxSpeed="50.07" vClass="passenger" guiShape="passenger" probability="0.01" />
<vType id="car2_3" accel="0.90" decel="4.50" sigma="0.55" length="4.09" minGap="1.00" maxSpeed="50.07" vClass="passenger" guiShape="passenger" probability="0.01" />
<vType id="car2_4" accel="0.90" decel="4.50" sigma="0.55" length="4.74" minGap="1.00" maxSpeed="49.98" vClass="passenger" guiShape="passenger" probability="0.01" />
</vTypeDistribution>
</routes>
