[General]
network = Net1

record-eventlog = true
sim-time-limit = 2s
Net1.k1.isMaster = true 
Net1.k2.isMaster = false
Net1.k3.isMaster = false

