[General]
network = Lin
sim-time-limit = 2s
