<edges>
	<edge id="n" from="n" to="c" numLanes="3" speed="13" />
	<edge id="e" from="e" to="c" numLanes="3" speed="13" />
	<edge id="s" from="s" to="c" numLanes="3" speed="13" />
	<edge id="w" from="w" to="c" numLanes="3" speed="13" />
	<edge id="-n" from="c" to="n" numLanes="3" speed="13" />
	<edge id="-e" from="c" to="e" numLanes="3" speed="13" />
	<edge id="-s" from="c" to="s" numLanes="3" speed="13" />
	<edge id="-w" from="c" to="w" numLanes="3" speed="13" />
</edges>
