<?xml version="1.0" encoding="UTF-8"?>

<!-- generated on Wed Jul  4 16:50:37 2012 by SUMO netconvert Version 0.15.0
<?xml version="1.0" encoding="UTF-8"?>

<configuration xmlns:xsi="http://www.w3.org/2001/XMLSchema-instance" xsi:noNamespaceSchemaLocation="http://sumo.sf.net/xsd/netconvertConfiguration.xsd">

    <input>
        <node-files value="kreisverkehr.nod.xml"/>
        <edge-files value="kreisverkehr.edg.xml"/>
        <connection-files value="kreisverkehr.con.xml"/>
    </input>

    <output>
        <output-file value="kreisverkehr.net.xml"/>
    </output>

    <processing>
        <no-turnarounds value="true"/>
    </processing>

</configuration>
-->

<net version="0.13" xmlns:xsi="http://www.w3.org/2001/XMLSchema-instance">

    <location netOffset="140.00,140.00" convBoundary="0.00,0.00,280.00,280.00" origBoundary="-140.00,-140.00,140.00,140.00" projParameter="!"/>

    <edge id=":1_0" function="internal">
        <lane id=":1_0_0" index="0" speed="8.00" length="5.00" shape="224.39,144.95 223.08,145.14 222.10,145.72 221.46,146.68 221.15,148.03"/>
    </edge>
    <edge id=":1_1" function="internal">
        <lane id=":1_1_0" index="0" speed="8.00" length="10.16" shape="224.39,141.65 221.79,142.05 219.84,143.24 218.52,145.22 217.84,148.00"/>
    </edge>
    <edge id=":1_2" function="internal">
        <lane id=":1_2_0" index="0" speed="8.00" length="12.95" shape="224.39,141.65 220.34,142.05 217.35,143.23 215.41,145.21 214.53,147.97"/>
    </edge>
    <edge id=":1_3" function="internal">
        <lane id=":1_3_0" index="0" speed="8.00" length="5.00" shape="221.15,131.97 221.46,133.32 222.10,134.28 223.08,134.86 224.39,135.05"/>
    </edge>
    <edge id=":1_4" function="internal">
        <lane id=":1_4_0" index="0" speed="8.00" length="10.20" shape="217.84,132.00 218.47,134.78 219.77,136.76 221.74,137.95 224.39,138.35"/>
    </edge>
    <edge id=":1_5" function="internal">
        <lane id=":1_5_0" index="0" speed="8.00" length="16.01" shape="214.53,132.03 215.04,136.75 215.21,140.00 215.04,143.25 214.53,147.97"/>
    </edge>
    <edge id=":1_6" function="internal">
        <lane id=":1_6_0" index="0" speed="8.00" length="15.96" shape="211.21,132.06 211.72,136.76 211.89,140.00 211.72,143.24 211.21,147.95"/>
    </edge>
    <edge id=":12-1_0" function="internal">
        <lane id=":12-1_0_0" index="0" speed="8.00" length="0.10" shape="215.63,170.50 215.63,170.50"/>
    </edge>
    <edge id=":12-1_1" function="internal">
        <lane id=":12-1_1_0" index="0" speed="8.00" length="0.10" shape="212.56,169.29 212.56,169.29"/>
    </edge>
    <edge id=":12-1_2" function="internal">
        <lane id=":12-1_2_0" index="0" speed="8.00" length="0.10" shape="209.49,168.08 209.48,168.10"/>
    </edge>
    <edge id=":12-1_3" function="internal">
        <lane id=":12-1_3_0" index="0" speed="8.00" length="0.10" shape="206.42,166.87 206.43,166.85"/>
    </edge>
    <edge id=":12-2_0" function="internal">
        <lane id=":12-2_0_0" index="0" speed="8.00" length="0.10" shape="197.70,197.63 197.70,197.63"/>
    </edge>
    <edge id=":12-2_1" function="internal">
        <lane id=":12-2_1_0" index="0" speed="8.00" length="0.10" shape="195.34,195.32 195.34,195.32"/>
    </edge>
    <edge id=":12-2_2" function="internal">
        <lane id=":12-2_2_0" index="0" speed="8.00" length="0.10" shape="192.99,193.01 192.97,193.03"/>
    </edge>
    <edge id=":12-2_3" function="internal">
        <lane id=":12-2_3_0" index="0" speed="8.00" length="0.10" shape="190.63,190.70 190.65,190.67"/>
    </edge>
    <edge id=":12-3_0" function="internal">
        <lane id=":12-3_0_0" index="0" speed="8.00" length="2.27" shape="170.61,215.59 168.43,216.24"/>
    </edge>
    <edge id=":12-3_1" function="internal">
        <lane id=":12-3_1_0" index="0" speed="8.00" length="1.62" shape="169.35,212.54 167.80,213.00"/>
    </edge>
    <edge id=":12-3_2" function="internal">
        <lane id=":12-3_2_0" index="0" speed="8.00" length="0.97" shape="168.10,209.48 167.17,209.76"/>
    </edge>
    <edge id=":12-3_3" function="internal">
        <lane id=":12-3_3_0" index="0" speed="8.00" length="0.32" shape="166.84,206.43 166.54,206.52"/>
    </edge>
    <edge id=":2_0" function="internal">
        <lane id=":2_0_0" index="0" speed="8.00" length="5.00" shape="135.05,224.39 134.86,223.08 134.28,222.10 133.32,221.46 131.97,221.15"/>
    </edge>
    <edge id=":2_1" function="internal">
        <lane id=":2_1_0" index="0" speed="8.00" length="10.16" shape="138.35,224.39 137.95,221.79 136.76,219.84 134.78,218.52 132.00,217.84"/>
    </edge>
    <edge id=":2_2" function="internal">
        <lane id=":2_2_0" index="0" speed="8.00" length="12.95" shape="138.35,224.39 137.95,220.34 136.77,217.35 134.79,215.41 132.03,214.53"/>
    </edge>
    <edge id=":2_3" function="internal">
        <lane id=":2_3_0" index="0" speed="8.00" length="5.44" shape="147.72,220.27 146.51,220.73 145.64,221.56 145.12,222.79 144.95,224.39"/>
    </edge>
    <edge id=":2_4" function="internal">
        <lane id=":2_4_0" index="0" speed="8.00" length="10.04" shape="147.09,217.03 144.71,217.88 143.01,219.39 141.99,221.56 141.65,224.39"/>
    </edge>
    <edge id=":2_5" function="internal">
        <lane id=":2_5_0" index="0" speed="8.00" length="14.56" shape="146.46,213.79 142.22,214.60 139.27,214.98 136.31,214.95 132.03,214.53"/>
    </edge>
    <edge id=":2_6" function="internal">
        <lane id=":2_6_0" index="0" speed="8.00" length="13.89" shape="145.83,210.55 141.78,211.32 138.97,211.67 136.14,211.62 132.05,211.21"/>
    </edge>
    <edge id=":23-1_0" function="internal">
        <lane id=":23-1_0_0" index="0" speed="8.00" length="0.10" shape="109.50,215.63 109.50,215.63"/>
    </edge>
    <edge id=":23-1_1" function="internal">
        <lane id=":23-1_1_0" index="0" speed="8.00" length="0.10" shape="110.71,212.56 110.71,212.56"/>
    </edge>
    <edge id=":23-1_2" function="internal">
        <lane id=":23-1_2_0" index="0" speed="8.00" length="0.10" shape="111.92,209.49 111.90,209.48"/>
    </edge>
    <edge id=":23-1_3" function="internal">
        <lane id=":23-1_3_0" index="0" speed="8.00" length="0.10" shape="113.13,206.42 113.15,206.43"/>
    </edge>
    <edge id=":23-2_0" function="internal">
        <lane id=":23-2_0_0" index="0" speed="8.00" length="0.10" shape="82.37,197.70 82.37,197.70"/>
    </edge>
    <edge id=":23-2_1" function="internal">
        <lane id=":23-2_1_0" index="0" speed="8.00" length="0.10" shape="84.68,195.34 84.68,195.34"/>
    </edge>
    <edge id=":23-2_2" function="internal">
        <lane id=":23-2_2_0" index="0" speed="8.00" length="0.10" shape="86.99,192.99 86.97,192.97"/>
    </edge>
    <edge id=":23-2_3" function="internal">
        <lane id=":23-2_3_0" index="0" speed="8.00" length="0.10" shape="89.30,190.63 89.33,190.65"/>
    </edge>
    <edge id=":23-3_0" function="internal">
        <lane id=":23-3_0_0" index="0" speed="8.00" length="0.10" shape="64.40,170.57 64.40,170.58"/>
    </edge>
    <edge id=":23-3_1" function="internal">
        <lane id=":23-3_1_0" index="0" speed="8.00" length="0.10" shape="67.45,169.32 67.45,169.32"/>
    </edge>
    <edge id=":23-3_2" function="internal">
        <lane id=":23-3_2_0" index="0" speed="8.00" length="0.10" shape="70.50,168.07 70.49,168.04"/>
    </edge>
    <edge id=":23-3_3" function="internal">
        <lane id=":23-3_3_0" index="0" speed="8.00" length="0.10" shape="73.56,166.81 73.56,166.83"/>
    </edge>
    <edge id=":3_0" function="internal">
        <lane id=":3_0_0" index="0" speed="8.00" length="5.00" shape="58.85,148.03 58.54,146.68 57.90,145.72 56.92,145.14 55.61,144.95"/>
    </edge>
    <edge id=":3_1" function="internal">
        <lane id=":3_1_0" index="0" speed="8.00" length="10.20" shape="62.16,148.00 61.53,145.22 60.23,143.24 58.26,142.05 55.61,141.65"/>
    </edge>
    <edge id=":3_2" function="internal">
        <lane id=":3_2_0" index="0" speed="8.00" length="16.01" shape="65.47,147.97 64.96,143.25 64.79,140.00 64.96,136.75 65.47,132.03"/>
    </edge>
    <edge id=":3_3" function="internal">
        <lane id=":3_3_0" index="0" speed="8.00" length="15.96" shape="68.79,147.94 68.28,143.24 68.11,140.00 68.28,136.76 68.79,132.05"/>
    </edge>
    <edge id=":3_4" function="internal">
        <lane id=":3_4_0" index="0" speed="8.00" length="5.00" shape="55.61,135.05 56.92,134.86 57.90,134.28 58.54,133.32 58.85,131.97"/>
    </edge>
    <edge id=":3_5" function="internal">
        <lane id=":3_5_0" index="0" speed="8.00" length="10.16" shape="55.61,138.35 58.21,137.95 60.16,136.76 61.48,134.78 62.16,132.00"/>
    </edge>
    <edge id=":3_6" function="internal">
        <lane id=":3_6_0" index="0" speed="8.00" length="12.95" shape="55.61,138.35 59.66,137.95 62.65,136.77 64.59,134.79 65.47,132.03"/>
    </edge>
    <edge id=":34-1_0" function="internal">
        <lane id=":34-1_0_0" index="0" speed="8.00" length="0.10" shape="64.39,109.44 64.39,109.44"/>
    </edge>
    <edge id=":34-1_1" function="internal">
        <lane id=":34-1_1_0" index="0" speed="8.00" length="0.10" shape="67.45,110.69 67.45,110.69"/>
    </edge>
    <edge id=":34-1_2" function="internal">
        <lane id=":34-1_2_0" index="0" speed="8.00" length="0.10" shape="70.50,111.94 70.52,111.90"/>
    </edge>
    <edge id=":34-1_3" function="internal">
        <lane id=":34-1_3_0" index="0" speed="8.00" length="0.10" shape="73.56,113.17 73.57,113.15"/>
    </edge>
    <edge id=":34-2_0" function="internal">
        <lane id=":34-2_0_0" index="0" speed="8.00" length="0.10" shape="82.37,82.30 82.37,82.29"/>
    </edge>
    <edge id=":34-2_1" function="internal">
        <lane id=":34-2_1_0" index="0" speed="8.00" length="0.10" shape="84.68,84.66 84.68,84.65"/>
    </edge>
    <edge id=":34-2_2" function="internal">
        <lane id=":34-2_2_0" index="0" speed="8.00" length="0.10" shape="86.99,87.02 87.04,86.96"/>
    </edge>
    <edge id=":34-2_3" function="internal">
        <lane id=":34-2_3_0" index="0" speed="8.00" length="0.10" shape="89.33,89.35 89.35,89.32"/>
    </edge>
    <edge id=":34-3_0" function="internal">
        <lane id=":34-3_0_0" index="0" speed="8.00" length="0.10" shape="109.42,64.40 109.43,64.40"/>
    </edge>
    <edge id=":34-3_1" function="internal">
        <lane id=":34-3_1_0" index="0" speed="8.00" length="0.10" shape="110.65,67.46 110.65,67.47"/>
    </edge>
    <edge id=":34-3_2" function="internal">
        <lane id=":34-3_2_0" index="0" speed="8.00" length="0.10" shape="111.87,70.53 111.87,70.53"/>
    </edge>
    <edge id=":34-3_3" function="internal">
        <lane id=":34-3_3_0" index="0" speed="8.00" length="0.10" shape="113.13,73.58 113.17,73.57"/>
    </edge>
    <edge id=":4_0" function="internal">
        <lane id=":4_0_0" index="0" speed="8.00" length="5.00" shape="144.95,55.61 145.14,56.92 145.72,57.90 146.68,58.54 148.03,58.85"/>
    </edge>
    <edge id=":4_1" function="internal">
        <lane id=":4_1_0" index="0" speed="8.00" length="10.16" shape="141.65,55.61 142.05,58.21 143.24,60.16 145.22,61.48 148.00,62.16"/>
    </edge>
    <edge id=":4_2" function="internal">
        <lane id=":4_2_0" index="0" speed="8.00" length="12.95" shape="141.65,55.61 142.05,59.66 143.23,62.65 145.21,64.59 147.97,65.47"/>
    </edge>
    <edge id=":4_3" function="internal">
        <lane id=":4_3_0" index="0" speed="8.00" length="5.00" shape="131.97,58.85 133.32,58.54 134.28,57.90 134.86,56.92 135.05,55.61"/>
    </edge>
    <edge id=":4_4" function="internal">
        <lane id=":4_4_0" index="0" speed="8.00" length="10.20" shape="132.00,62.16 134.78,61.53 136.76,60.23 137.95,58.26 138.35,55.61"/>
    </edge>
    <edge id=":4_5" function="internal">
        <lane id=":4_5_0" index="0" speed="8.00" length="16.01" shape="132.03,65.47 136.75,64.96 140.00,64.79 143.25,64.96 147.97,65.47"/>
    </edge>
    <edge id=":4_6" function="internal">
        <lane id=":4_6_0" index="0" speed="8.00" length="15.96" shape="132.06,68.79 136.76,68.28 140.00,68.11 143.24,68.28 147.95,68.79"/>
    </edge>
    <edge id=":41-1_0" function="internal">
        <lane id=":41-1_0_0" index="0" speed="8.00" length="0.10" shape="170.56,64.39 170.56,64.39"/>
    </edge>
    <edge id=":41-1_1" function="internal">
        <lane id=":41-1_1_0" index="0" speed="8.00" length="0.10" shape="169.31,67.45 169.31,67.45"/>
    </edge>
    <edge id=":41-1_2" function="internal">
        <lane id=":41-1_2_0" index="0" speed="8.00" length="0.10" shape="168.06,70.50 168.10,70.52"/>
    </edge>
    <edge id=":41-1_3" function="internal">
        <lane id=":41-1_3_0" index="0" speed="8.00" length="0.10" shape="166.83,73.56 166.85,73.57"/>
    </edge>
    <edge id=":41-2_0" function="internal">
        <lane id=":41-2_0_0" index="0" speed="8.00" length="0.10" shape="197.69,82.36 197.69,82.36"/>
    </edge>
    <edge id=":41-2_1" function="internal">
        <lane id=":41-2_1_0" index="0" speed="8.00" length="0.10" shape="195.34,84.67 195.34,84.67"/>
    </edge>
    <edge id=":41-2_2" function="internal">
        <lane id=":41-2_2_0" index="0" speed="8.00" length="0.10" shape="192.98,86.99 193.03,87.03"/>
    </edge>
    <edge id=":41-2_3" function="internal">
        <lane id=":41-2_3_0" index="0" speed="8.00" length="0.10" shape="190.65,89.33 190.67,89.35"/>
    </edge>
    <edge id=":41-3_0" function="internal">
        <lane id=":41-3_0_0" index="0" speed="8.00" length="0.10" shape="215.63,109.49 215.63,109.49"/>
    </edge>
    <edge id=":41-3_1" function="internal">
        <lane id=":41-3_1_0" index="0" speed="8.00" length="0.10" shape="212.56,110.70 212.56,110.70"/>
    </edge>
    <edge id=":41-3_2" function="internal">
        <lane id=":41-3_2_0" index="0" speed="8.00" length="0.10" shape="209.49,111.91 209.51,111.96"/>
    </edge>
    <edge id=":41-3_3" function="internal">
        <lane id=":41-3_3_0" index="0" speed="8.00" length="0.10" shape="206.43,113.15 206.44,113.17"/>
    </edge>

    <edge id="1-2-1" from="1" to="12-1" priority="-1" shape="210.00,140.00 209.99,141.22 209.96,142.44 209.90,143.66 209.83,144.88 209.73,146.10 209.62,147.32 209.48,148.53 209.32,149.74 209.14,150.95 208.94,152.16 208.71,153.36 208.47,154.55 208.21,155.75 207.92,156.93 207.61,158.12 207.29,159.29 206.94,160.47 206.57,161.63 206.19,162.79 205.78,163.94 205.35,165.09 204.90,166.22">
        <lane id="1-2-1_0" index="0" speed="8.00" length="21.40" shape="221.15,148.03 221.12,148.36 220.95,149.86 220.77,151.25 220.56,152.65 220.34,154.04 220.05,155.53 219.79,156.83 219.50,158.20 219.14,159.69 218.79,161.03 218.43,162.34 218.01,163.75 217.57,165.14 217.17,166.39 216.66,167.82 216.17,169.14 215.63,170.50"/>
        <lane id="1-2-1_1" index="1" speed="8.00" length="21.40" shape="217.84,148.00 217.68,149.48 217.50,150.82 217.30,152.16 217.08,153.51 216.81,154.91 216.56,156.18 216.27,157.50 215.93,158.90 215.59,160.20 215.25,161.47 214.85,162.82 214.43,164.14 214.03,165.36 213.55,166.71 213.08,167.98 212.56,169.29"/>
        <lane id="1-2-1_2" index="2" speed="8.00" length="21.40" shape="214.53,147.97 214.40,149.10 214.23,150.39 214.04,151.68 213.82,152.97 213.57,154.29 213.32,155.53 213.05,156.80 212.73,158.11 212.40,159.37 212.06,160.60 211.69,161.88 211.29,163.13 210.89,164.33 210.44,165.60 209.99,166.82 209.49,168.08"/>
        <lane id="1-2-1_3" index="3" speed="8.00" length="21.40" shape="211.21,147.95 211.12,148.72 210.96,149.96 210.77,151.19 210.57,152.43 210.33,153.67 210.09,154.88 209.82,156.10 209.52,157.32 209.21,158.54 208.88,159.73 208.52,160.94 208.14,162.13 207.76,163.30 207.33,164.49 206.90,165.67 206.42,166.87"/>
    </edge>
    <edge id="1-2-2" from="12-1" to="12-2" priority="-1" shape="204.90,166.22 204.44,167.35 203.95,168.47 203.44,169.58 202.92,170.69 202.37,171.78 201.81,172.86 201.22,173.94 200.62,175.00 200.00,176.05 199.36,177.09 198.71,178.12 198.03,179.14 197.34,180.15 196.63,181.14 195.90,182.13 195.16,183.10 194.40,184.05 193.62,185.00 192.83,185.92 192.02,186.84 191.19,187.74 190.35,188.63 189.50,189.50">
        <lane id="1-2-2_0" index="0" speed="8.00" length="30.76" shape="215.63,170.50 215.12,171.74 214.53,173.10 213.94,174.40 213.38,175.59 212.68,176.98 212.06,178.18 211.36,179.48 210.67,180.69 209.95,181.92 209.20,183.14 208.48,184.28 207.64,185.55 206.88,186.67 206.02,187.87 205.20,188.98 204.34,190.11 203.42,191.27 202.55,192.33 201.59,193.44 200.69,194.47 199.68,195.57 198.75,196.56 197.70,197.63"/>
        <lane id="1-2-2_1" index="1" speed="8.00" length="30.76" shape="212.56,169.29 212.07,170.48 211.51,171.78 210.94,173.02 210.39,174.19 209.74,175.50 209.13,176.66 208.46,177.90 207.80,179.06 207.10,180.24 206.39,181.41 205.69,182.52 204.89,183.72 204.15,184.80 203.33,185.95 202.54,187.03 201.72,188.10 200.84,189.20 200.00,190.24 199.09,191.29 198.21,192.29 197.25,193.33 196.35,194.29 195.34,195.32"/>
        <lane id="1-2-2_2" index="2" speed="8.00" length="30.76" shape="209.48,168.10 209.02,169.23 208.48,170.45 207.94,171.65 207.40,172.79 206.79,174.01 206.20,175.14 205.56,176.31 204.93,177.44 204.26,178.57 203.58,179.68 202.90,180.76 202.15,181.89 201.43,182.94 200.65,184.02 199.88,185.07 199.10,186.10 198.27,187.14 197.45,188.14 196.59,189.14 195.74,190.11 194.83,191.10 193.95,192.03 192.99,193.01"/>
        <lane id="1-2-2_3" index="3" speed="8.00" length="30.76" shape="206.43,166.85 205.97,167.98 205.46,169.13 204.94,170.27 204.41,171.39 203.84,172.52 203.27,173.62 202.67,174.73 202.06,175.81 201.42,176.89 200.77,177.95 200.11,179.00 199.40,180.06 198.70,181.08 197.97,182.10 197.23,183.11 196.47,184.10 195.69,185.08 194.90,186.05 194.08,186.99 193.26,187.93 192.40,188.86 191.55,189.76 190.63,190.70"/>
    </edge>
    <edge id="1-2-3" from="12-2" to="12-3" priority="-1" shape="189.50,189.50 188.63,190.35 187.74,191.19 186.84,192.02 185.92,192.83 185.00,193.62 184.05,194.40 183.10,195.16 182.13,195.90 181.14,196.63 180.15,197.34 179.14,198.03 178.12,198.71 177.09,199.36 176.05,200.00 175.00,200.62 173.94,201.22 172.86,201.81 171.78,202.37 170.69,202.92 169.58,203.44 168.47,203.95 167.35,204.44 166.22,204.90">
        <lane id="1-2-3_0" index="0" speed="8.00" length="30.72" shape="197.70,197.63 196.73,198.59 195.67,199.59 194.67,200.51 193.55,201.50 192.52,202.38 191.38,203.33 190.32,204.18 189.14,205.08 187.99,205.93 186.88,206.73 185.66,207.57 184.53,208.32 183.25,209.13 182.10,209.84 180.87,210.57 179.63,211.27 178.40,211.95 177.10,212.62 175.89,213.23 174.48,213.90 173.29,214.45 171.98,215.02 170.61,215.59"/>
        <lane id="1-2-3_1" index="1" speed="8.00" length="30.72" shape="195.34,195.32 194.41,196.23 193.40,197.19 192.43,198.08 191.37,199.02 190.37,199.88 189.29,200.78 188.25,201.60 187.13,202.46 186.04,203.27 184.96,204.04 183.79,204.84 182.70,205.57 181.49,206.34 180.37,207.03 179.19,207.72 178.00,208.40 176.82,209.05 175.58,209.69 174.41,210.29 173.08,210.91 171.91,211.45 170.66,212.00 169.35,212.54"/>
        <lane id="1-2-3_2" index="2" speed="8.00" length="30.72" shape="192.97,193.03 192.10,193.88 191.14,194.79 190.20,195.66 189.19,196.55 188.22,197.38 187.19,198.23 186.19,199.03 185.13,199.84 184.08,200.61 183.03,201.36 181.93,202.12 180.87,202.83 179.73,203.55 178.64,204.22 177.52,204.88 176.38,205.53 175.23,206.15 174.06,206.76 172.92,207.34 171.68,207.92 170.54,208.45 169.33,208.97 168.10,209.48"/>
        <lane id="1-2-3_3" index="3" speed="8.00" length="30.72" shape="190.65,190.67 189.79,191.53 188.87,192.39 187.96,193.23 187.01,194.07 186.07,194.87 185.10,195.68 184.13,196.45 183.13,197.21 182.12,197.96 181.11,198.68 180.07,199.39 179.04,200.08 177.97,200.76 176.91,201.41 175.84,202.04 174.75,202.66 173.65,203.26 172.54,203.83 171.43,204.39 170.28,204.93 169.16,205.45 168.01,205.95 166.84,206.43"/>
    </edge>
    <edge id="1-2-4" from="12-3" to="2" priority="-1">
        <lane id="1-2-4_0" index="0" speed="8.00" length="21.10" shape="168.43,216.24 147.72,220.27"/>
        <lane id="1-2-4_1" index="1" speed="8.00" length="21.10" shape="167.80,213.00 147.09,217.03"/>
        <lane id="1-2-4_2" index="2" speed="8.00" length="21.10" shape="167.17,209.76 146.46,213.79"/>
        <lane id="1-2-4_3" index="3" speed="8.00" length="21.10" shape="166.54,206.52 145.83,210.55"/>
    </edge>
    <edge id="1-5" from="1" to="5" priority="-1">
        <lane id="1-5_0" index="0" speed="8.00" length="55.61" shape="224.39,135.05 280.00,135.05"/>
        <lane id="1-5_1" index="1" speed="8.00" length="55.61" shape="224.39,138.35 280.00,138.35"/>
    </edge>
    <edge id="2-3-1" from="2" to="23-1" priority="-1" shape="140.00,210.00 138.78,209.99 137.56,209.96 136.34,209.90 135.12,209.83 133.90,209.73 132.68,209.62 131.47,209.48 130.26,209.32 129.05,209.14 127.84,208.94 126.64,208.71 125.45,208.47 124.25,208.21 123.07,207.92 121.88,207.61 120.71,207.29 119.53,206.94 118.37,206.57 117.21,206.19 116.06,205.78 114.91,205.35 113.78,204.90">
        <lane id="2-3-1_0" index="0" speed="8.00" length="21.40" shape="131.97,221.15 131.64,221.12 130.14,220.95 128.75,220.77 127.35,220.56 125.96,220.34 124.47,220.05 123.17,219.79 121.80,219.50 120.31,219.14 118.97,218.79 117.66,218.43 116.25,218.01 114.86,217.57 113.61,217.17 112.18,216.66 110.86,216.17 109.50,215.63"/>
        <lane id="2-3-1_1" index="1" speed="8.00" length="21.40" shape="132.00,217.84 130.52,217.68 129.18,217.50 127.84,217.30 126.49,217.08 125.09,216.81 123.82,216.56 122.50,216.27 121.10,215.93 119.80,215.59 118.53,215.25 117.18,214.85 115.86,214.43 114.64,214.03 113.29,213.55 112.02,213.08 110.71,212.56"/>
        <lane id="2-3-1_2" index="2" speed="8.00" length="21.40" shape="132.03,214.53 130.90,214.40 129.61,214.23 128.32,214.04 127.03,213.82 125.71,213.57 124.47,213.32 123.20,213.05 121.89,212.73 120.63,212.40 119.40,212.06 118.12,211.69 116.87,211.29 115.67,210.89 114.40,210.44 113.18,209.99 111.92,209.49"/>
        <lane id="2-3-1_3" index="3" speed="8.00" length="21.40" shape="132.05,211.21 131.28,211.12 130.04,210.96 128.81,210.77 127.57,210.57 126.33,210.33 125.12,210.09 123.90,209.82 122.68,209.52 121.46,209.21 120.27,208.88 119.06,208.52 117.87,208.14 116.70,207.76 115.51,207.33 114.33,206.90 113.13,206.42"/>
    </edge>
    <edge id="2-3-2" from="23-1" to="23-2" priority="-1" shape="113.78,204.90 112.65,204.44 111.53,203.95 110.42,203.44 109.31,202.92 108.22,202.37 107.14,201.81 106.06,201.22 105.00,200.62 103.95,200.00 102.91,199.36 101.88,198.71 100.86,198.03 99.85,197.34 98.86,196.63 97.87,195.90 96.90,195.16 95.95,194.40 95.00,193.62 94.08,192.83 93.16,192.02 92.26,191.19 91.37,190.35 90.50,189.50">
        <lane id="2-3-2_0" index="0" speed="8.00" length="30.76" shape="109.50,215.63 108.26,215.12 106.90,214.53 105.60,213.94 104.41,213.38 103.02,212.68 101.82,212.06 100.52,211.36 99.31,210.67 98.08,209.95 96.86,209.20 95.72,208.48 94.45,207.64 93.33,206.88 92.13,206.02 91.02,205.20 89.89,204.34 88.73,203.42 87.67,202.55 86.56,201.59 85.53,200.69 84.43,199.68 83.44,198.75 82.37,197.70"/>
        <lane id="2-3-2_1" index="1" speed="8.00" length="30.76" shape="110.71,212.56 109.52,212.07 108.22,211.51 106.98,210.94 105.81,210.39 104.50,209.74 103.34,209.13 102.10,208.46 100.94,207.80 99.76,207.10 98.59,206.39 97.48,205.69 96.28,204.89 95.20,204.15 94.05,203.33 92.97,202.54 91.90,201.72 90.80,200.84 89.76,200.00 88.71,199.09 87.71,198.21 86.67,197.25 85.71,196.35 84.68,195.34"/>
        <lane id="2-3-2_2" index="2" speed="8.00" length="30.76" shape="111.90,209.48 110.77,209.02 109.55,208.48 108.35,207.94 107.21,207.40 105.99,206.79 104.86,206.20 103.69,205.56 102.56,204.93 101.43,204.26 100.32,203.58 99.24,202.90 98.11,202.15 97.06,201.43 95.98,200.65 94.93,199.88 93.90,199.10 92.86,198.27 91.86,197.45 90.86,196.59 89.89,195.74 88.90,194.83 87.97,193.95 86.99,192.99"/>
        <lane id="2-3-2_3" index="3" speed="8.00" length="30.76" shape="113.15,206.43 112.02,205.97 110.87,205.46 109.73,204.94 108.61,204.41 107.48,203.84 106.38,203.27 105.27,202.67 104.19,202.06 103.11,201.42 102.05,200.77 101.00,200.11 99.94,199.40 98.92,198.70 97.90,197.97 96.89,197.23 95.90,196.47 94.92,195.69 93.95,194.90 93.01,194.08 92.07,193.26 91.14,192.40 90.24,191.55 89.30,190.63"/>
    </edge>
    <edge id="2-3-3" from="23-2" to="23-3" priority="-1" shape="90.50,189.50 89.65,188.63 88.81,187.74 87.98,186.84 87.17,185.92 86.38,185.00 85.60,184.05 84.84,183.10 84.10,182.13 83.37,181.14 82.66,180.15 81.97,179.14 81.29,178.12 80.64,177.09 80.00,176.05 79.38,175.00 78.78,173.94 78.19,172.86 77.63,171.78 77.08,170.69 76.56,169.58 76.05,168.47 75.56,167.35 75.10,166.22">
        <lane id="2-3-3_0" index="0" speed="8.00" length="30.75" shape="82.37,197.70 81.41,196.73 80.41,195.67 79.49,194.67 78.50,193.55 77.62,192.52 76.67,191.38 75.82,190.32 74.92,189.14 74.07,187.99 73.27,186.88 72.43,185.66 71.68,184.53 70.87,183.25 70.16,182.10 69.43,180.87 68.73,179.63 68.05,178.40 67.38,177.10 66.77,175.89 66.10,174.48 65.55,173.29 64.98,171.98 64.40,170.57"/>
        <lane id="2-3-3_1" index="1" speed="8.00" length="30.75" shape="84.68,195.34 83.77,194.41 82.81,193.40 81.92,192.43 80.98,191.37 80.12,190.37 79.22,189.29 78.40,188.25 77.54,187.13 76.73,186.04 75.96,184.96 75.16,183.79 74.43,182.70 73.66,181.49 72.97,180.37 72.28,179.19 71.60,178.00 70.95,176.82 70.31,175.58 69.71,174.41 69.09,173.08 68.55,171.91 68.00,170.66 67.45,169.32"/>
        <lane id="2-3-3_2" index="2" speed="8.00" length="30.75" shape="86.97,192.97 86.12,192.10 85.21,191.14 84.34,190.20 83.45,189.19 82.62,188.22 81.77,187.19 80.97,186.19 80.16,185.13 79.39,184.08 78.64,183.03 77.88,181.93 77.17,180.87 76.45,179.73 75.78,178.64 75.12,177.52 74.47,176.38 73.85,175.23 73.24,174.06 72.66,172.92 72.08,171.68 71.55,170.54 71.03,169.33 70.50,168.07"/>
        <lane id="2-3-3_3" index="3" speed="8.00" length="30.75" shape="89.33,190.65 88.47,189.79 87.61,188.87 86.77,187.96 85.93,187.01 85.13,186.07 84.32,185.10 83.55,184.13 82.79,183.13 82.04,182.12 81.32,181.11 80.61,180.07 79.92,179.04 79.24,177.97 78.59,176.91 77.96,175.84 77.34,174.75 76.74,173.65 76.17,172.54 75.61,171.43 75.07,170.28 74.55,169.16 74.05,168.01 73.56,166.81"/>
    </edge>
    <edge id="2-3-4" from="23-3" to="3" priority="-1" shape="75.10,166.22 74.65,165.09 74.22,163.94 73.81,162.79 73.43,161.63 73.06,160.47 72.71,159.29 72.39,158.12 72.08,156.93 71.79,155.75 71.53,154.55 71.29,153.36 71.06,152.16 70.86,150.95 70.68,149.74 70.52,148.53 70.38,147.32 70.27,146.10 70.17,144.88 70.10,143.66 70.04,142.44 70.01,141.22 70.00,140.00">
        <lane id="2-3-4_0" index="0" speed="8.00" length="21.41" shape="64.40,170.58 63.91,169.33 63.40,167.99 62.93,166.67 62.45,165.23 62.06,163.98 61.64,162.57 61.25,161.17 60.90,159.84 60.57,158.51 60.24,157.00 59.97,155.64 59.72,154.33 59.46,152.83 59.26,151.44 59.07,150.04 58.91,148.65 58.85,148.03"/>
        <lane id="2-3-4_1" index="1" speed="8.00" length="21.41" shape="67.45,169.32 66.98,168.12 66.49,166.83 66.04,165.56 65.59,164.20 65.20,162.98 64.80,161.64 64.43,160.30 64.10,159.01 63.78,157.72 63.47,156.30 63.20,154.99 62.96,153.71 62.72,152.30 62.52,150.95 62.34,149.61 62.18,148.27 62.16,148.00"/>
        <lane id="2-3-4_2" index="2" speed="8.00" length="21.41" shape="70.49,168.04 70.05,166.91 69.58,165.67 69.15,164.45 68.73,163.17 68.34,161.97 67.96,160.70 67.62,159.43 67.29,158.18 66.98,156.93 66.69,155.60 66.44,154.34 66.20,153.09 65.98,151.76 65.78,150.47 65.61,149.18 65.47,147.97"/>
        <lane id="2-3-4_3" index="3" speed="8.00" length="21.41" shape="73.56,166.83 73.12,165.70 72.67,164.52 72.26,163.34 71.86,162.14 71.49,160.97 71.13,159.76 70.80,158.56 70.48,157.35 70.19,156.14 69.92,154.90 69.67,153.69 69.44,152.47 69.23,151.22 69.05,149.98 68.88,148.75 68.79,147.94"/>
    </edge>
    <edge id="2-6" from="2" to="6" priority="-1">
        <lane id="2-6_0" index="0" speed="8.00" length="55.61" shape="144.95,224.39 144.95,280.00"/>
        <lane id="2-6_1" index="1" speed="8.00" length="55.61" shape="141.65,224.39 141.65,280.00"/>
    </edge>
    <edge id="3-4-1" from="3" to="34-1" priority="-1" shape="70.00,140.00 70.01,138.78 70.04,137.56 70.10,136.34 70.17,135.12 70.27,133.90 70.38,132.68 70.52,131.47 70.68,130.26 70.86,129.05 71.06,127.84 71.29,126.64 71.53,125.45 71.79,124.25 72.08,123.07 72.39,121.88 72.71,120.71 73.06,119.53 73.43,118.37 73.81,117.21 74.22,116.06 74.65,114.91 75.10,113.78">
        <lane id="3-4-1_0" index="0" speed="8.00" length="21.40" shape="58.85,131.97 58.88,131.64 59.05,130.14 59.23,128.75 59.44,127.35 59.66,125.96 59.95,124.47 60.21,123.17 60.50,121.80 60.86,120.31 61.21,118.97 61.57,117.66 61.99,116.25 62.43,114.86 62.83,113.61 63.34,112.18 63.83,110.86 64.39,109.44"/>
        <lane id="3-4-1_1" index="1" speed="8.00" length="21.40" shape="62.16,132.00 62.32,130.52 62.50,129.18 62.70,127.84 62.92,126.49 63.19,125.09 63.44,123.82 63.73,122.50 64.07,121.10 64.41,119.80 64.75,118.53 65.15,117.18 65.57,115.86 65.97,114.64 66.45,113.29 66.92,112.02 67.45,110.69"/>
        <lane id="3-4-1_2" index="2" speed="8.00" length="21.40" shape="65.47,132.03 65.60,130.90 65.77,129.61 65.96,128.32 66.18,127.03 66.43,125.71 66.68,124.47 66.95,123.20 67.27,121.89 67.60,120.63 67.94,119.40 68.31,118.12 68.71,116.87 69.11,115.67 69.56,114.40 70.01,113.18 70.50,111.94"/>
        <lane id="3-4-1_3" index="3" speed="8.00" length="21.40" shape="68.79,132.05 68.88,131.28 69.04,130.04 69.23,128.81 69.43,127.57 69.67,126.33 69.91,125.12 70.18,123.90 70.48,122.68 70.79,121.46 71.12,120.27 71.48,119.06 71.86,117.87 72.24,116.70 72.67,115.51 73.10,114.33 73.56,113.17"/>
    </edge>
    <edge id="3-4-2" from="34-1" to="34-2" priority="-1" shape="75.10,113.78 75.56,112.65 76.05,111.53 76.56,110.42 77.08,109.31 77.63,108.22 78.19,107.14 78.78,106.06 79.38,105.00 80.00,103.95 80.64,102.91 81.29,101.88 81.97,100.86 82.66,99.85 83.37,98.86 84.10,97.87 84.84,96.90 85.60,95.95 86.38,95.00 87.17,94.08 87.98,93.16 88.81,92.26 89.65,91.37 90.50,90.50">