[General]
network = Net1


record-eventlog = true
sim-time-limit = 10s
simtime-resolution = ns
Net1.k1.isMaster = true 
Net1.k2.isMaster = false
Net1.k3.isMaster = false

Net1.t1.isMaster = true 
Net1.t2.isMaster = false
