[General]
network = Network

sim-time-limit = 10s
Network.CompoundedModule[0].ApplicationLayer.isMaster = true
Network.CompoundedModule[1].ApplicationLayer.isMaster = false


