[General]
network = Lin
num-rngs = 4
seed-0-mt = 0
seed-1-mt = 1
seed-2-mt = 2
seed-3-mt = 3
sim-time-limit = 60s
