<routes>

<vTypeDistribution id="cars">
<vType id="truck1_0" accel="0.60" decel="4.50" sigma="0.75" length="8.54" minGap="0.00" maxSpeed="39.96" vClass="transport" guiShape="transport/semitrailer" probability="0.01" />
<vType id="truck1_1" accel="0.60" decel="4.50" sigma="0.75" length="8.86" minGap="0.00" maxSpeed="40.00" vClass="transport" guiShape="transport/semitrailer" probability="0.01" />
<vType id="truck1_2" accel="0.60" decel="4.50" sigma="0.75" length="8.93" minGap="0.00" maxSpeed="39.97" vClass="transport" guiShape="transport/semitrailer" probability="0.01" />
<vType id="truck1_3" accel="0.60" decel="4.50" sigma="0.75" length="8.76" minGap="0.00" maxSpeed="39.94" vClass="transport" guiShape="transport/semitrailer" probability="0.01" />
<vType id="truck1_4" accel="0.60" decel="4.50" sigma="0.75" length="8.14" minGap="0.00" maxSpeed="40.01" vClass="transport" guiShape="transport/semitrailer" probability="0.01" />
<vType id="truck2_0" accel="0.60" decel="4.50" sigma="0.75" length="16.14" minGap="0.00" maxSpeed="33.00" vClass="transport" guiShape="transport/semitrailer" probability="0.01" />
<vType id="truck2_1" accel="0.60" decel="4.50" sigma="0.75" length="16.34" minGap="0.00" maxSpeed="32.92" vClass="transport" guiShape="transport/semitrailer" probability="0.01" />
<vType id="truck2_2" accel="0.60" decel="4.50" sigma="0.75" length="16.20" minGap="0.00" maxSpeed="32.93" vClass="transport" guiShape="transport/semitrailer" probability="0.01" />
<vType id="truck2_3" accel="0.60" decel="4.50" sigma="0.75" length="16.71" minGap="0.00" maxSpeed="32.99" vClass="transport" guiShape="transport/semitrailer" probability="0.01" />
<vType id="truck2_4" accel="0.60" decel="4.50" sigma="0.75" length="16.84" minGap="0.00" maxSpeed="32.98" vClass="transport" guiShape="transport/semitrailer" probability="0.01" />
<vType id="truck3_0" accel="0.50" decel="3.50" sigma="0.85" length="18.50" minGap="0.00" maxSpeed="29.97" vClass="transport" guiShape="transport/trailer" probability="0.01" />
<vType id="truck3_1" accel="0.50" decel="3.50" sigma="0.85" length="18.94" minGap="0.00" maxSpeed="29.92" vClass="transport" guiShape="transport/trailer" probability="0.01" />
<vType id="truck3_2" accel="0.50" decel="3.50" sigma="0.85" length="18.76" minGap="0.00" maxSpeed="30.09" vClass="transport" guiShape="transport/trailer" probability="0.01" />
<vType id="truck3_3" accel="0.50" decel="3.50" sigma="0.85" length="18.82" minGap="0.00" maxSpeed="29.94" vClass="transport" guiShape="transport/trailer" probability="0.01" />
<vType id="truck3_4" accel="0.50" decel="3.50" sigma="0.85" length="19.09" minGap="0.00" maxSpeed="29.95" vClass="transport" guiShape="transport/trailer" probability="0.01" />
<vType id="car0_0" accel="0.70" decel="3.50" sigma="0.35" length="4.26" minGap="0.00" maxSpeed="49.97" vClass="passenger" guiShape="passenger" probability="0.01" />
<vType id="car0_1" accel="0.70" decel="3.50" sigma="0.35" length="4.67" minGap="0.00" maxSpeed="50.09" vClass="passenger" guiShape="passenger" probability="0.01" />
<vType id="car0_2" accel="0.70" decel="3.50" sigma="0.35" length="4.19" minGap="0.00" maxSpeed="49.95" vClass="passenger" guiShape="passenger" probability="0.01" />
<vType id="car0_3" accel="0.70" decel="3.50" sigma="0.35" length="4.33" minGap="0.00" maxSpeed="49.91" vClass="passenger" guiShape="passenger" probability="0.01" />
<vType id="car0_4" accel="0.70" decel="3.50" sigma="0.35" length="4.22" minGap="0.00" maxSpeed="50.05" vClass="passenger" guiShape="passenger" probability="0.01" />
<vType id="car0_5" accel="0.70" decel="3.50" sigma="0.35" length="4.19" minGap="0.00" maxSpeed="50.05" vClass="passenger" guiShape="passenger" probability="0.01" />
<vType id="car0_6" accel="0.70" decel="3.50" sigma="0.35" length="4.21" minGap="0.00" maxSpeed="49.97" vClass="passenger" guiShape="passenger" probability="0.01" />
<vType id="car0_7" accel="0.70" decel="3.50" sigma="0.35" length="4.60" minGap="0.00" maxSpeed="49.98" vClass="passenger" guiShape="passenger" probability="0.01" />
<vType id="car0_8" accel="0.70" decel="3.50" sigma="0.35" length="4.38" minGap="0.00" maxSpeed="50.00" vClass="passenger" guiShape="passenger" probability="0.01" />
<vType id="car0_9" accel="0.70" decel="3.50" sigma="0.35" length="4.20" minGap="0.00" maxSpeed="49.92" vClass="passenger" guiShape="passenger" probability="0.01" />
<vType id="car0_10" accel="0.70" decel="3.50" sigma="0.35" length="4.47" minGap="0.00" maxSpeed="50.08" vClass="passenger" guiShape="passenger" probability="0.01" />
<vType id="car0_11" accel="0.70" decel="3.50" sigma="0.35" length="4.46" minGap="0.00" maxSpeed="50.08" vClass="passenger" guiShape="passenger" probability="0.01" />
<vType id="car0_12" accel="0.70" decel="3.50" sigma="0.35" length="3.93" minGap="0.00" maxSpeed="49.96" vClass="passenger" guiShape="passenger" probability="0.01" />
<vType id="car0_13" accel="0.70" decel="3.50" sigma="0.35" length="4.48" minGap="0.00" maxSpeed="49.97" vClass="passenger" guiShape="passenger" probability="0.01" />
<vType id="car0_14" accel="0.70" decel="3.50" sigma="0.35" length="4.64" minGap="0.00" maxSpeed="50.01" vClass="passenger" guiShape="passenger" probability="0.01" />
<vType id="car0_15" accel="0.70" decel="3.50" sigma="0.35" length="4.47" minGap="0.00" maxSpeed="49.92" vClass="passenger" guiShape="passenger" probability="0.01" />
<vType id="car0_16" accel="0.70" decel="3.50" sigma="0.35" length="4.04" minGap="0.00" maxSpeed="49.91" vClass="passenger" guiShape="passenger" probability="0.01" />
<vType id="car0_17" accel="0.70" decel="3.50" sigma="0.35" length="4.71" minGap="0.00" maxSpeed="50.02" vClass="passenger" guiShape="passenger" probability="0.01" />
<vType id="car0_18" accel="0.70" decel="3.50" sigma="0.35" length="4.25" minGap="0.00" maxSpeed="49.98" vClass="passenger" guiShape="passenger" probability="0.01" />
<vType id="car0_19" accel="0.70" decel="3.50" sigma="0.35" length="4.24" minGap="0.00" maxSpeed="49.99" vClass="passenger" guiShape="passenger" probability="0.01" />
<vType id="car0_20" accel="0.70" decel="3.50" sigma="0.35" length="4.51" minGap="0.00" maxSpeed="49.94" vClass="passenger" guiShape="passenger" probability="0.01" />
<vType id="car0_21" accel="0.70" decel="3.50" sigma="0.35" length="4.14" minGap="0.00" maxSpeed="49.96" vClass="passenger" guiShape="passenger" probability="0.01" />
<vType id="car0_22" accel="0.70" decel="3.50" sigma="0.35" length="4.17" minGap="0.00" maxSpeed="50.05" vClass="passenger" guiShape="passenger" probability="0.01" />
<vType id="car0_23" accel="0.70" decel="3.50" sigma="0.35" length="4.43" minGap="0.00" maxSpeed="49.96" vClass="passenger" guiShape="passenger" probability="0.01" />
<vType id="car0_24" accel="0.70" decel="3.50" sigma="0.35" length="4.56" minGap="0.00" maxSpeed="50.08" vClass="passenger" guiShape="passenger" probability="0.01" />
<vType id="car0_25" accel="0.70" decel="3.50" sigma="0.35" length="4.72" minGap="0.00" maxSpeed="49.99" vClass="passenger" guiShape="passenger" probability="0.01" />
<vType id="car0_26" accel="0.70" decel="3.50" sigma="0.35" length="4.13" minGap="0.00" maxSpeed="50.02" vClass="passenger" guiShape="passenger" probability="0.01" />
<vType id="car0_27" accel="0.70" decel="3.50" sigma="0.35" length="4.75" minGap="0.00" maxSpeed="49.90" vClass="passenger" guiShape="passenger" probability="0.01" />
<vType id="car0_28" accel="0.70" decel="3.50" sigma="0.35" length="4.86" minGap="0.00" maxSpeed="49.99" vClass="passenger" guiShape="passenger" probability="0.01" />
<vType id="car0_29" accel="0.70" decel="3.50" sigma="0.35" length="4.10" minGap="0.00" maxSpeed="50.01" vClass="passenger" guiShape="passenger" probability="0.01" />
<vType id="car0_30" accel="0.70" decel="3.50" sigma="0.35" length="3.94" minGap="0.00" maxSpeed="50.09" vClass="passenger" guiShape="passenger" probability="0.01" />
<vType id="car0_31" accel="0.70" decel="3.50" sigma="0.35" length="4.15" minGap="0.00" maxSpeed="49.97" vClass="passenger" guiShape="passenger" probability="0.01" />
<vType id="car0_32" accel="0.70" decel="3.50" sigma="0.35" length="4.21" minGap="0.00" maxSpeed="49.95" vClass="passenger" guiShape="passenger" probability="0.01" />
<vType id="car0_33" accel="0.70" decel="3.50" sigma="0.35" length="4.30" minGap="0.00" maxSpeed="50.09" vClass="passenger" guiShape="passenger" probability="0.01" />
<vType id="car0_34" accel="0.70" decel="3.50" sigma="0.35" length="4.12" minGap="0.00" maxSpeed="49.95" vClass="passenger" guiShape="passenger" probability="0.01" />
<vType id="car0_35" accel="0.70" decel="3.50" sigma="0.35" length="4.06" minGap="0.00" maxSpeed="50.07" vClass="passenger" guiShape="passenger" probability="0.01" />
<vType id="car0_36" accel="0.70" decel="3.50" sigma="0.35" length="4.04" minGap="0.00" maxSpeed="50.06" vClass="passenger" guiShape="passenger" probability="0.01" />
<vType id="car0_37" accel="0.70" decel="3.50" sigma="0.35" length="4.23" minGap="0.00" maxSpeed="49.92" vClass="passenger" guiShape="passenger" probability="0.01" />
<vType id="car0_38" accel="0.70" decel="3.50" sigma="0.35" length="4.75" minGap="0.00" maxSpeed="50.02" vClass="passenger" guiShape="passenger" probability="0.01" />
<vType id="car0_39" accel="0.70" decel="3.50" sigma="0.35" length="4.32" minGap="0.00" maxSpeed="50.00" vClass="passenger" guiShape="passenger" probability="0.01" />
<vType id="car0_40" accel="0.70" decel="3.50" sigma="0.35" length="4.39" minGap="0.00" maxSpeed="49.98" vClass="passenger" guiShape="passenger" probability="0.01" />
<vType id="car0_41" accel="0.70" decel="3.50" sigma="0.35" length="4.34" minGap="0.00" maxSpeed="49.91" vClass="passenger" guiShape="passenger" probability="0.01" />
<vType id="car0_42" accel="0.70" decel="3.50" sigma="0.35" length="4.02" minGap="0.00" maxSpeed="49.92" vClass="passenger" guiShape="passenger" probability="0.01" />
<vType id="car0_43" accel="0.70" decel="3.50" sigma="0.35" length="4.85" minGap="0.00" maxSpeed="50.00" vClass="passenger" guiShape="passenger" probability="0.01" />
<vType id="car0_44" accel="0.70" decel="3.50" sigma="0.35" length="4.17" minGap="0.00" maxSpeed="49.93" vClass="passenger" guiShape="passenger" probability="0.01" />
<vType id="car0_45" accel="0.70" decel="3.50" sigma="0.35" length="4.49" minGap="0.00" maxSpeed="49.94" vClass="passenger" guiShape="passenger" probability="0.01" />
<vType id="car0_46" accel="0.70" decel="3.50" sigma="0.35" length="4.39" minGap="0.00" maxSpeed="50.01" vClass="passenger" guiShape="passenger" probability="0.01" />
<vType id="car0_47" accel="0.70" decel="3.50" sigma="0.35" length="4.38" minGap="0.00" maxSpeed="50.05" vClass="passenger" guiShape="passenger" probability="0.01" />
<vType id="car0_48" accel="0.70" decel="3.50" sigma="0.35" length="4.51" minGap="0.00" maxSpeed="50.05" vClass="passenger" guiShape="passenger" probability="0.01" />
<vType id="car0_49" accel="0.70" decel="3.50" sigma="0.35" length="4.39" minGap="0.00" maxSpeed="49.99" vClass="passenger" guiShape="passenger" probability="0.01" />
<vType id="car0_50" accel="0.70" decel="3.50" sigma="0.35" length="4.05" minGap="0.00" maxSpeed="50.02" vClass="passenger" guiShape="passenger" probability="0.01" />
<vType id="car0_51" accel="0.70" decel="3.50" sigma="0.35" length="4.25" minGap="0.00" maxSpeed="50.06" vClass="passenger" guiShape="passenger" probability="0.01" />
<vType id="car0_52" accel="0.70" decel="3.50" sigma="0.35" length="4.09" minGap="0.00" maxSpeed="49.95" vClass="passenger" guiShape="passenger" probability="0.01" />
<vType id="car0_53" accel="0.70" decel="3.50" sigma="0.35" length="4.32" minGap="0.00" maxSpeed="49.95" vClass="passenger" guiShape="passenger" probability="0.01" />
<vType id="car0_54" accel="0.70" decel="3.50" sigma="0.35" length="4.53" minGap="0.00" maxSpeed="49.95" vClass="passenger" guiShape="passenger" probability="0.01" />
<vType id="car0_55" accel="0.70" decel="3.50" sigma="0.35" length="4.88" minGap="0.00" maxSpeed="50.10" vClass="passenger" guiShape="passenger" probability="0.01" />
<vType id="car0_56" accel="0.70" decel="3.50" sigma="0.35" length="4.79" minGap="0.00" maxSpeed="50.09" vClass="passenger" guiShape="passenger" probability="0.01" />
<vType id="car0_57" accel="0.70" decel="3.50" sigma="0.35" length="4.54" minGap="0.00" maxSpeed="50.00" vClass="passenger" guiShape="passenger" probability="0.01" />
<vType id="car0_58" accel="0.70" decel="3.50" sigma="0.35" length="4.31" minGap="0.00" maxSpeed="50.07" vClass="passenger" guiShape="passenger" probability="0.01" />
<vType id="car0_59" accel="0.70" decel="3.50" sigma="0.35" length="4.15" minGap="0.00" maxSpeed="49.98" vClass="passenger" guiShape="passenger" probability="0.01" />
<vType id="car0_60" accel="0.70" decel="3.50" sigma="0.35" length="4.22" minGap="0.00" maxSpeed="49.93" vClass="passenger" guiShape="passenger" probability="0.01" />
<vType id="car0_61" accel="0.70" decel="3.50" sigma="0.35" length="4.56" minGap="0.00" maxSpeed="49.95" vClass="passenger" guiShape="passenger" probability="0.01" />
<vType id="car0_62" accel="0.70" decel="3.50" sigma="0.35" length="4.08" minGap="0.00" maxSpeed="49.96" vClass="passenger" guiShape="passenger" probability="0.01" />
<vType id="car0_63" accel="0.70" decel="3.50" sigma="0.35" length="4.85" minGap="0.00" maxSpeed="50.06" vClass="passenger" guiShape="passenger" probability="0.01" />
<vType id="car0_64" accel="0.70" decel="3.50" sigma="0.35" length="3.91" minGap="0.00" maxSpeed="49.97" vClass="passenger" guiShape="passenger" probability="0.01" />
<vType id="car1_0" accel="0.90" decel="4.50" sigma="0.55" length="5.06" minGap="0.00" maxSpeed="45.00" vClass="passenger" guiShape="passenger/van" probability="0.01" />
<vType id="car1_1" accel="0.90" decel="4.50" sigma="0.55" length="5.47" minGap="0.00" maxSpeed="44.98" vClass="passenger" guiShape="passenger/van" probability="0.01" />
<vType id="car1_2" accel="0.90" decel="4.50" sigma="0.55" length="5.09" minGap="0.00" maxSpeed="45.00" vClass="passenger" guiShape="passenger/van" probability="0.01" />
<vType id="car1_3" accel="0.90" decel="4.50" sigma="0.55" length="5.23" minGap="0.00" maxSpeed="44.99" vClass="passenger" guiShape="passenger/van" probability="0.01" />
<vType id="car1_4" accel="0.90" decel="4.50" sigma="0.55" length="5.68" minGap="0.00" maxSpeed="44.97" vClass="passenger" guiShape="passenger/van" probability="0.01" />
<vType id="car2_0" accel="0.90" decel="4.50" sigma="0.55" length="4.28" minGap="0.00" maxSpeed="57.06" vClass="passenger" guiShape="passenger" probability="0.01" />
<vType id="car2_1" accel="0.90" decel="4.50" sigma="0.55" length="4.03" minGap="0.00" maxSpeed="57.07" vClass="passenger" guiShape="passenger" probability="0.01" />
<vType id="car2_2" accel="0.90" decel="4.50" sigma="0.55" length="3.97" minGap="0.00" maxSpeed="56.98" vClass="passenger" guiShape="passenger" probability="0.01" />
<vType id="car2_3" accel="0.90" decel="4.50" sigma="0.55" length="4.11" minGap="0.00" maxSpeed="57.01" vClass="passenger" guiShape="passenger" probability="0.01" />
<vType id="car2_4" accel="0.90" decel="4.50" sigma="0.55" length="3.97" minGap="0.00" maxSpeed="57.02" vClass="passenger" guiShape="passenger" probability="0.01" />
<vType id="car2_5" accel="0.90" decel="4.50" sigma="0.55" length="3.98" minGap="0.00" maxSpeed="57.00" vClass="passenger" guiShape="passenger" probability="0.01" />
<vType id="car2_6" accel="0.90" decel="4.50" sigma="0.55" length="3.90" minGap="0.00" maxSpeed="56.96" vClass="passenger" guiShape="passenger" probability="0.01" />
<vType id="car2_7" accel="0.90" decel="4.50" sigma="0.55" length="4.26" minGap="0.00" maxSpeed="57.00" vClass="passenger" guiShape="passenger" probability="0.01" />
<vType id="car2_8" accel="0.90" decel="4.50" sigma="0.55" length="4.13" minGap="0.00" maxSpeed="57.03" vClass="passenger" guiShape="passenger" probability="0.01" />
<vType id="car2_9" accel="0.90" decel="4.50" sigma="0.55" length="4.03" minGap="0.00" maxSpeed="56.91" vClass="passenger" guiShape="passenger" probability="0.01" />
<vType id="car2_10" accel="0.90" decel="4.50" sigma="0.55" length="4.76" minGap="0.00" maxSpeed="57.07" vClass="passenger" guiShape="passenger" probability="0.01" />
<vType id="car2_11" accel="0.90" decel="4.50" sigma="0.55" length="4.53" minGap="0.00" maxSpeed="57.00" vClass="passenger" guiShape="passenger" probability="0.01" />
<vType id="car2_12" accel="0.90" decel="4.50" sigma="0.55" length="4.39" minGap="0.00" maxSpeed="56.96" vClass="passenger" guiShape="passenger" probability="0.01" />
<vType id="car2_13" accel="0.90" decel="4.50" sigma="0.55" length="4.42" minGap="0.00" maxSpeed="57.08" vClass="passenger" guiShape="passenger" probability="0.01" />
<vType id="car2_14" accel="0.90" decel="4.50" sigma="0.55" length="4.58" minGap="0.00" maxSpeed="57.09" vClass="passenger" guiShape="passenger" probability="0.01" />
</vTypeDistribution>

   <route id="from8-5" multi_ref="x" edges="8-4 4-1-1 4-1-2 4-1-3 4-1-4 1-5"/>
   <route id="from8-6" multi_ref="x" edges="8-4 4-1-1 4-1-2 4-1-3 4-1-4 1-2-1 1-2-2 1-2-3 1-2-4 2-6"/>
   <route id="from8-7" multi_ref="x" edges="8-4 4-1-1 4-1-2 4-1-3 4-1-4 1-2-1 1-2-2 1-2-3 1-2-4 2-3-1 2-3-2 2-3-3 2-3-4 3-7"/>

   <route id="from5-6" multi_ref="x" edges="5-1 1-2-1 1-2-2 1-2-3 1-2-4 2-6"/>
   <route id="from5-7" multi_ref="x" edges="5-1 1-2-1 1-2-2 1-2-3 1-2-4 2-3-1 2-3-2 2-3-3 2-3-4 3-7"/>
   <route id="from5-8" multi_ref="x" edges="5-1 1-2-1 1-2-2 1-2-3 1-2-4 2-3-1 2-3-2 2-3-3 2-3-4 3-4-1 3-4-2 3-4-3 3-4-4 4-8"/>

   <route id="from6-7" multi_ref="x" edges="6-2 2-3-1 2-3-2 2-3-3 2-3-4 3-7"/>
   <route id="from6-8" multi_ref="x" edges="6-2 2-3-1 2-3-2 2-3-3 2-3-4 3-4-1 3-4-2 3-4-3 3-4-4 4-8"/>
   <route id="from6-5" multi_ref="x" edges="6-2 2-3-1 2-3-2 2-3-3 2-3-4 3-4-1 3-4-2 3-4-3 3-4-4 4-1-1 4-1-2 4-1-3 4-1-4 1-5"/>

   <route id="from7-8" multi_ref="x" edges="7-3 3-4-1 3-4-2 3-4-3 3-4-4 4-8"/>
   <route id="from7-5" multi_ref="x" edges="7-3 3-4-1 3-4-2 3-4-3 3-4-4 4-1-1 4-1-2 4-1-3 4-1-4 1-5"/>
   <route id="from7-6" multi_ref="x" edges="7-3 3-4-1 3-4-2 3-4-3 3-4-4 4-1-1 4-1-2 4-1-3 4-1-4 1-2-1 1-2-2 1-2-3 1-2-4 2-6"/>

	<flow id="cars8-5" type="cars" route="from8-5" begin="0" end="2500" period="25" departLane="best"/>
	<flow id="cars8-6" type="cars" route="from8-6" begin="0" end="2500" period="25" departLane="best"/>
	<flow id="cars8-7" type="cars" route="from8-7" begin="0" end="2500" period="25" departLane="best"/>

	<flow id="cars5-6" type="cars" route="from5-6" begin="0" end="2500" period="25" departLane="best"/>
	<flow id="cars5-7" type="cars" route="from5-7" begin="0" end="2500" period="25" departLane="best"/>
	<flow id="cars5-8" type="cars" route="from5-8" begin="0" end="2500" period="25" departLane="best"/>

	<flow id="cars6-7" type="cars" route="from6-7" begin="0" end="2500" period="25" departLane="best"/>
	<flow id="cars6-8" type="cars" route="from6-8" begin="0" end="2500" period="25" departLane="best"/>
	<flow id="cars6-5" type="cars" route="from6-5" begin="0" end="2500" period="25" departLane="best"/>

	<flow id="cars7-8" type="cars" route="from7-8" begin="0" end="2500" period="25" departLane="best"/>
	<flow id="cars7-5" type="cars" route="from7-5" begin="0" end="2500" period="25" departLane="best"/>
	<flow id="cars7-6" type="cars" route="from7-6" begin="0" end="2500" period="25" departLane="best"/>

</routes>
