<routes>
    <routeDistribution id="routedist1">
        <route id="ns" edges="n -s" probability="0.200"/>
        <route id="ne" edges="n -e" probability="0.022"/>
        <route id="nw" edges="n -w" probability="0.022"/>
        <route id="nn" edges="n -n" probability="0.006"/>

        <route id="sn" edges="s -n" probability="0.200"/>
        <route id="se" edges="s -e" probability="0.022"/>
        <route id="sw" edges="s -w" probability="0.022"/>
        <route id="ss" edges="s -s" probability="0.006"/>

        <route id="ew" edges="e -w" probability="0.200"/>
        <route id="es" edges="e -s" probability="0.022"/>
        <route id="en" edges="e -n" probability="0.022"/>
        <route id="ee" edges="e -e" probability="0.006"/>

        <route id="we" edges="w -e" probability="0.200"/>
        <route id="ws" edges="w -s" probability="0.022"/>
        <route id="wn" edges="w -n" probability="0.022"/>
        <route id="ww" edges="w -w" probability="0.006"/>
    </routeDistribution>
    <vTypeDistribution id="typedist1">
        <vType id="type1" accel="0.8" length="5" maxSpeed="70" probability="0.9"/>
        <vType id="type2" accel="1.8" length="15" maxSpeed="50" probability="0.1"/>
    </vTypeDistribution>
   <vehicle id="veh0" type="typedist1" route="routedist1" depart="0" departPos="0" departSpeed="max" />
   <vehicle id="veh1" type="typedist1" route="routedist1" depart="0" departPos="0" departSpeed="max" />
   <vehicle id="veh2" type="typedist1" route="routedist1" depart="0" departPos="0" departSpeed="max" />
   <vehicle id="veh3" type="typedist1" route="routedist1" depart="0" departPos="0" departSpeed="max" />
   <vehicle id="veh4" type="typedist1" route="routedist1" depart="0" departPos="0" departSpeed="max" />
   <vehicle id="veh5" type="typedist1" route="routedist1" depart="0" departPos="0" departSpeed="max" />
   <vehicle id="veh6" type="typedist1" route="routedist1" depart="0" departPos="0" departSpeed="max" />
   <vehicle id="veh7" type="typedist1" route="routedist1" depart="0" departPos="0" departSpeed="max" />
   <vehicle id="veh8" type="typedist1" route="routedist1" depart="0" departPos="0" departSpeed="max" />
   <vehicle id="veh9" type="typedist1" route="routedist1" depart="0" departPos="0" departSpeed="max" />
   <vehicle id="veh10" type="typedist1" route="routedist1" depart="0" departPos="0" departSpeed="max" />
   <vehicle id="veh11" type="typedist1" route="routedist1" depart="0" departPos="0" departSpeed="max" />
   <vehicle id="veh12" type="typedist1" route="routedist1" depart="0" departPos="0" departSpeed="max" />
   <vehicle id="veh13" type="typedist1" route="routedist1" depart="0" departPos="0" departSpeed="max" />
   <vehicle id="veh14" type="typedist1" route="routedist1" depart="0" departPos="0" departSpeed="max" />
   <vehicle id="veh15" type="typedist1" route="routedist1" depart="0" departPos="0" departSpeed="max" />
   <vehicle id="veh16" type="typedist1" route="routedist1" depart="0" departPos="0" departSpeed="max" />
   <vehicle id="veh17" type="typedist1" route="routedist1" depart="0" departPos="0" departSpeed="max" />
   <vehicle id="veh18" type="typedist1" route="routedist1" depart="0" departPos="0" departSpeed="max" />
   <vehicle id="veh19" type="typedist1" route="routedist1" depart="0" departPos="0" departSpeed="max" />
   <vehicle id="veh20" type="typedist1" route="routedist1" depart="0" departPos="0" departSpeed="max" />
   <vehicle id="veh21" type="typedist1" route="routedist1" depart="0" departPos="0" departSpeed="max" />
   <vehicle id="veh22" type="typedist1" route="routedist1" depart="0" departPos="0" departSpeed="max" />
   <vehicle id="veh23" type="typedist1" route="routedist1" depart="0" departPos="0" departSpeed="max" />
   <vehicle id="veh24" type="typedist1" route="routedist1" depart="0" departPos="0" departSpeed="max" />
   <vehicle id="veh25" type="typedist1" route="routedist1" depart="0" departPos="0" departSpeed="max" />
   <vehicle id="veh26" type="typedist1" route="routedist1" depart="0" departPos="0" departSpeed="max" />
   <vehicle id="veh27" type="typedist1" route="routedist1" depart="0" departPos="0" departSpeed="max" />
   <vehicle id="veh28" type="typedist1" route="routedist1" depart="0" departPos="0" departSpeed="max" />
   <vehicle id="veh29" type="typedist1" route="routedist1" depart="0" departPos="0" departSpeed="max" />
   <vehicle id="veh30" type="typedist1" route="routedist1" depart="0" departPos="0" departSpeed="max" />
   <vehicle id="veh31" type="typedist1" route="routedist1" depart="0" departPos="0" departSpeed="max" />
   <vehicle id="veh32" type="typedist1" route="routedist1" depart="0" departPos="0" departSpeed="max" />
   <vehicle id="veh33" type="typedist1" route="routedist1" depart="0" departPos="0" departSpeed="max" />
   <vehicle id="veh34" type="typedist1" route="routedist1" depart="0" departPos="0" departSpeed="max" />
   <vehicle id="veh35" type="typedist1" route="routedist1" depart="0" departPos="0" departSpeed="max" />
   <vehicle id="veh36" type="typedist1" route="routedist1" depart="0" departPos="0" departSpeed="max" />
   <vehicle id="veh37" type="typedist1" route="routedist1" depart="0" departPos="0" departSpeed="max" />
   <vehicle id="veh38" type="typedist1" route="routedist1" depart="0" departPos="0" departSpeed="max" />
   <vehicle id="veh39" type="typedist1" route="routedist1" depart="0" departPos="0" departSpeed="max" />
   <vehicle id="veh40" type="typedist1" route="routedist1" depart="0" departPos="0" departSpeed="max" />
   <vehicle id="veh41" type="typedist1" route="routedist1" depart="0" departPos="0" departSpeed="max" />
   <vehicle id="veh42" type="typedist1" route="routedist1" depart="0" departPos="0" departSpeed="max" />
   <vehicle id="veh43" type="typedist1" route="routedist1" depart="0" departPos="0" departSpeed="max" />
   <vehicle id="veh44" type="typedist1" route="routedist1" depart="0" departPos="0" departSpeed="max" />
   <vehicle id="veh45" type="typedist1" route="routedist1" depart="0" departPos="0" departSpeed="max" />
   <vehicle id="veh46" type="typedist1" route="routedist1" depart="0" departPos="0" departSpeed="max" />
   <vehicle id="veh47" type="typedist1" route="routedist1" depart="0" departPos="0" departSpeed="max" />
   <vehicle id="veh48" type="typedist1" route="routedist1" depart="0" departPos="0" departSpeed="max" />
   <vehicle id="veh49" type="typedist1" route="routedist1" depart="0" departPos="0" departSpeed="max" />
   <vehicle id="veh50" type="typedist1" route="routedist1" depart="0" departPos="0" departSpeed="max" />
   <vehicle id="veh51" type="typedist1" route="routedist1" depart="0" departPos="0" departSpeed="max" />
   <vehicle id="veh52" type="typedist1" route="routedist1" depart="0" departPos="0" departSpeed="max" />
   <vehicle id="veh53" type="typedist1" route="routedist1" depart="0" departPos="0" departSpeed="max" />
   <vehicle id="veh54" type="typedist1" route="routedist1" depart="0" departPos="0" departSpeed="max" />
   <vehicle id="veh55" type="typedist1" route="routedist1" depart="0" departPos="0" departSpeed="max" />
   <vehicle id="veh56" type="typedist1" route="routedist1" depart="0" departPos="0" departSpeed="max" />
   <vehicle id="veh57" type="typedist1" route="routedist1" depart="0" departPos="0" departSpeed="max" />
   <vehicle id="veh58" type="typedist1" route="routedist1" depart="0" departPos="0" departSpeed="max" />
   <vehicle id="veh59" type="typedist1" route="routedist1" depart="0" departPos="0" departSpeed="max" />
   <vehicle id="veh60" type="typedist1" route="routedist1" depart="0" departPos="0" departSpeed="max" />
   <vehicle id="veh61" type="typedist1" route="routedist1" depart="0" departPos="0" departSpeed="max" />
   <vehicle id="veh62" type="typedist1" route="routedist1" depart="0" departPos="0" departSpeed="max" />
   <vehicle id="veh63" type="typedist1" route="routedist1" depart="0" departPos="0" departSpeed="max" />
   <vehicle id="veh64" type="typedist1" route="routedist1" depart="0" departPos="0" departSpeed="max" />
   <vehicle id="veh65" type="typedist1" route="routedist1" depart="0" departPos="0" departSpeed="max" />
   <vehicle id="veh66" type="typedist1" route="routedist1" depart="0" departPos="0" departSpeed="max" />
   <vehicle id="veh67" type="typedist1" route="routedist1" depart="0" departPos="0" departSpeed="max" />
   <vehicle id="veh68" type="typedist1" route="routedist1" depart="0" departPos="0" departSpeed="max" />
   <vehicle id="veh69" type="typedist1" route="routedist1" depart="0" departPos="0" departSpeed="max" />
   <vehicle id="veh70" type="typedist1" route="routedist1" depart="0" departPos="0" departSpeed="max" />
   <vehicle id="veh71" type="typedist1" route="routedist1" depart="0" departPos="0" departSpeed="max" />
   <vehicle id="veh72" type="typedist1" route="routedist1" depart="0" departPos="0" departSpeed="max" />
   <vehicle id="veh73" type="typedist1" route="routedist1" depart="0" departPos="0" departSpeed="max" />
   <vehicle id="veh74" type="typedist1" route="routedist1" depart="0" departPos="0" departSpeed="max" />
   <vehicle id="veh75" type="typedist1" route="routedist1" depart="0" departPos="0" departSpeed="max" />
   <vehicle id="veh76" type="typedist1" route="routedist1" depart="0" departPos="0" departSpeed="max" />
   <vehicle id="veh77" type="typedist1" route="routedist1" depart="0" departPos="0" departSpeed="max" />
   <vehicle id="veh78" type="typedist1" route="routedist1" depart="0" departPos="0" departSpeed="max" />
   <vehicle id="veh79" type="typedist1" route="routedist1" depart="0" departPos="0" departSpeed="max" />
   <vehicle id="veh80" type="typedist1" route="routedist1" depart="0" departPos="0" departSpeed="max" />
   <vehicle id="veh81" type="typedist1" route="routedist1" depart="0" departPos="0" departSpeed="max" />
   <vehicle id="veh82" type="typedist1" route="routedist1" depart="0" departPos="0" departSpeed="max" />
   <vehicle id="veh83" type="typedist1" route="routedist1" depart="0" departPos="0" departSpeed="max" />
   <vehicle id="veh84" type="typedist1" route="routedist1" depart="0" departPos="0" departSpeed="max" />
   <vehicle id="veh85" type="typedist1" route="routedist1" depart="0" departPos="0" departSpeed="max" />
   <vehicle id="veh86" type="typedist1" route="routedist1" depart="0" departPos="0" departSpeed="max" />
   <vehicle id="veh87" type="typedist1" route="routedist1" depart="0" departPos="0" departSpeed="max" />
   <vehicle id="veh88" type="typedist1" route="routedist1" depart="0" departPos="0" departSpeed="max" />
   <vehicle id="veh89" type="typedist1" route="routedist1" depart="0" departPos="0" departSpeed="max" />
   <vehicle id="veh90" type="typedist1" route="routedist1" depart="0" departPos="0" departSpeed="max" />
   <vehicle id="veh91" type="typedist1" route="routedist1" depart="0" departPos="0" departSpeed="max" />
   <vehicle id="veh92" type="typedist1" route="routedist1" depart="0" departPos="0" departSpeed="max" />
   <vehicle id="veh93" type="typedist1" route="routedist1" depart="0" departPos="0" departSpeed="max" />
   <vehicle id="veh94" type="typedist1" route="routedist1" depart="0" departPos="0" departSpeed="max" />
   <vehicle id="veh95" type="typedist1" route="routedist1" depart="0" departPos="0" departSpeed="max" />
   <vehicle id="veh96" type="typedist1" route="routedist1" depart="0" departPos="0" departSpeed="max" />
   <vehicle id="veh97" type="typedist1" route="routedist1" depart="0" departPos="0" departSpeed="max" />
   <vehicle id="veh98" type="typedist1" route="routedist1" depart="0" departPos="0" departSpeed="max" />
   <vehicle id="veh99" type="typedist1" route="routedist1" depart="0" departPos="0" departSpeed="max" />
   <vehicle id="veh100" type="typedist1" route="routedist1" depart="0" departPos="0" departSpeed="max" />
   <vehicle id="veh101" type="typedist1" route="routedist1" depart="0" departPos="0" departSpeed="max" />
   <vehicle id="veh102" type="typedist1" route="routedist1" depart="0" departPos="0" departSpeed="max" />
   <vehicle id="veh103" type="typedist1" route="routedist1" depart="0" departPos="0" departSpeed="max" />
   <vehicle id="veh104" type="typedist1" route="routedist1" depart="0" departPos="0" departSpeed="max" />
   <vehicle id="veh105" type="typedist1" route="routedist1" depart="0" departPos="0" departSpeed="max" />
   <vehicle id="veh106" type="typedist1" route="routedist1" depart="0" departPos="0" departSpeed="max" />
   <vehicle id="veh107" type="typedist1" route="routedist1" depart="0" departPos="0" departSpeed="max" />
   <vehicle id="veh108" type="typedist1" route="routedist1" depart="0" departPos="0" departSpeed="max" />
   <vehicle id="veh109" type="typedist1" route="routedist1" depart="0" departPos="0" departSpeed="max" />
   <vehicle id="veh110" type="typedist1" route="routedist1" depart="0" departPos="0" departSpeed="max" />
   <vehicle id="veh111" type="typedist1" route="routedist1" depart="0" departPos="0" departSpeed="max" />
   <vehicle id="veh112" type="typedist1" route="routedist1" depart="0" departPos="0" departSpeed="max" />
   <vehicle id="veh113" type="typedist1" route="routedist1" depart="0" departPos="0" departSpeed="max" />
   <vehicle id="veh114" type="typedist1" route="routedist1" depart="0" departPos="0" departSpeed="max" />
   <vehicle id="veh115" type="typedist1" route="routedist1" depart="0" departPos="0" departSpeed="max" />
   <vehicle id="veh116" type="typedist1" route="routedist1" depart="0" departPos="0" departSpeed="max" />
   <vehicle id="veh117" type="typedist1" route="routedist1" depart="0" departPos="0" departSpeed="max" />
   <vehicle id="veh118" type="typedist1" route="routedist1" depart="0" departPos="0" departSpeed="max" />
   <vehicle id="veh119" type="typedist1" route="routedist1" depart="0" departPos="0" departSpeed="max" />
   <vehicle id="veh120" type="typedist1" route="routedist1" depart="0" departPos="0" departSpeed="max" />
   <vehicle id="veh121" type="typedist1" route="routedist1" depart="0" departPos="0" departSpeed="max" />
   <vehicle id="veh122" type="typedist1" route="routedist1" depart="0" departPos="0" departSpeed="max" />
   <vehicle id="veh123" type="typedist1" route="routedist1" depart="0" departPos="0" departSpeed="max" />
   <vehicle id="veh124" type="typedist1" route="routedist1" depart="0" departPos="0" departSpeed="max" />
   <vehicle id="veh125" type="typedist1" route="routedist1" depart="0" departPos="0" departSpeed="max" />
   <vehicle id="veh126" type="typedist1" route="routedist1" depart="0" departPos="0" departSpeed="max" />
   <vehicle id="veh127" type="typedist1" route="routedist1" depart="0" departPos="0" departSpeed="max" />
   <vehicle id="veh128" type="typedist1" route="routedist1" depart="0" departPos="0" departSpeed="max" />
   <vehicle id="veh129" type="typedist1" route="routedist1" depart="0" departPos="0" departSpeed="max" />
   <vehicle id="veh130" type="typedist1" route="routedist1" depart="0" departPos="0" departSpeed="max" />
   <vehicle id="veh131" type="typedist1" route="routedist1" depart="0" departPos="0" departSpeed="max" />
   <vehicle id="veh132" type="typedist1" route="routedist1" depart="0" departPos="0" departSpeed="max" />
   <vehicle id="veh133" type="typedist1" route="routedist1" depart="0" departPos="0" departSpeed="max" />
   <vehicle id="veh134" type="typedist1" route="routedist1" depart="0" departPos="0" departSpeed="max" />
   <vehicle id="veh135" type="typedist1" route="routedist1" depart="0" departPos="0" departSpeed="max" />
   <vehicle id="veh136" type="typedist1" route="routedist1" depart="0" departPos="0" departSpeed="max" />
   <vehicle id="veh137" type="typedist1" route="routedist1" depart="0" departPos="0" departSpeed="max" />
   <vehicle id="veh138" type="typedist1" route="routedist1" depart="0" departPos="0" departSpeed="max" />
   <vehicle id="veh139" type="typedist1" route="routedist1" depart="0" departPos="0" departSpeed="max" />
   <vehicle id="veh140" type="typedist1" route="routedist1" depart="0" departPos="0" departSpeed="max" />
   <vehicle id="veh141" type="typedist1" route="routedist1" depart="0" departPos="0" departSpeed="max" />
   <vehicle id="veh142" type="typedist1" route="routedist1" depart="0" departPos="0" departSpeed="max" />
   <vehicle id="veh143" type="typedist1" route="routedist1" depart="0" departPos="0" departSpeed="max" />
   <vehicle id="veh144" type="typedist1" route="routedist1" depart="0" departPos="0" departSpeed="max" />
   <vehicle id="veh145" type="typedist1" route="routedist1" depart="0" departPos="0" departSpeed="max" />
   <vehicle id="veh146" type="typedist1" route="routedist1" depart="0" departPos="0" departSpeed="max" />
   <vehicle id="veh147" type="typedist1" route="routedist1" depart="0" departPos="0" departSpeed="max" />
   <vehicle id="veh148" type="typedist1" route="routedist1" depart="0" departPos="0" departSpeed="max" />
   <vehicle id="veh149" type="typedist1" route="routedist1" depart="0" departPos="0" departSpeed="max" />
   <vehicle id="veh150" type="typedist1" route="routedist1" depart="0" departPos="0" departSpeed="max" />
   <vehicle id="veh151" type="typedist1" route="routedist1" depart="0" departPos="0" departSpeed="max" />
   <vehicle id="veh152" type="typedist1" route="routedist1" depart="0" departPos="0" departSpeed="max" />
   <vehicle id="veh153" type="typedist1" route="routedist1" depart="0" departPos="0" departSpeed="max" />
   <vehicle id="veh154" type="typedist1" route="routedist1" depart="0" departPos="0" departSpeed="max" />
   <vehicle id="veh155" type="typedist1" route="routedist1" depart="0" departPos="0" departSpeed="max" />
   <vehicle id="veh156" type="typedist1" route="routedist1" depart="0" departPos="0" departSpeed="max" />
   <vehicle id="veh157" type="typedist1" route="routedist1" depart="0" departPos="0" departSpeed="max" />
   <vehicle id="veh158" type="typedist1" route="routedist1" depart="0" departPos="0" departSpeed="max" />
   <vehicle id="veh159" type="typedist1" route="routedist1" depart="0" departPos="0" departSpeed="max" />
   <vehicle id="veh160" type="typedist1" route="routedist1" depart="0" departPos="0" departSpeed="max" />
   <vehicle id="veh161" type="typedist1" route="routedist1" depart="0" departPos="0" departSpeed="max" />
   <vehicle id="veh162" type="typedist1" route="routedist1" depart="0" departPos="0" departSpeed="max" />
   <vehicle id="veh163" type="typedist1" route="routedist1" depart="0" departPos="0" departSpeed="max" />
   <vehicle id="veh164" type="typedist1" route="routedist1" depart="0" departPos="0" departSpeed="max" />
   <vehicle id="veh165" type="typedist1" route="routedist1" depart="0" departPos="0" departSpeed="max" />
   <vehicle id="veh166" type="typedist1" route="routedist1" depart="0" departPos="0" departSpeed="max" />
   <vehicle id="veh167" type="typedist1" route="routedist1" depart="0" departPos="0" departSpeed="max" />
   <vehicle id="veh168" type="typedist1" route="routedist1" depart="0" departPos="0" departSpeed="max" />
   <vehicle id="veh169" type="typedist1" route="routedist1" depart="0" departPos="0" departSpeed="max" />
   <vehicle id="veh170" type="typedist1" route="routedist1" depart="0" departPos="0" departSpeed="max" />
   <vehicle id="veh171" type="typedist1" route="routedist1" depart="0" departPos="0" departSpeed="max" />
   <vehicle id="veh172" type="typedist1" route="routedist1" depart="0" departPos="0" departSpeed="max" />
   <vehicle id="veh173" type="typedist1" route="routedist1" depart="0" departPos="0" departSpeed="max" />
   <vehicle id="veh174" type="typedist1" route="routedist1" depart="0" departPos="0" departSpeed="max" />
   <vehicle id="veh175" type="typedist1" route="routedist1" depart="0" departPos="0" departSpeed="max" />
   <vehicle id="veh176" type="typedist1" route="routedist1" depart="0" departPos="0" departSpeed="max" />
   <vehicle id="veh177" type="typedist1" route="routedist1" depart="0" departPos="0" departSpeed="max" />
   <vehicle id="veh178" type="typedist1" route="routedist1" depart="0" departPos="0" departSpeed="max" />
   <vehicle id="veh179" type="typedist1" route="routedist1" depart="0" departPos="0" departSpeed="max" />
   <vehicle id="veh180" type="typedist1" route="routedist1" depart="0" departPos="0" departSpeed="max" />
   <vehicle id="veh181" type="typedist1" route="routedist1" depart="0" departPos="0" departSpeed="max" />
   <vehicle id="veh182" type="typedist1" route="routedist1" depart="0" departPos="0" departSpeed="max" />
   <vehicle id="veh183" type="typedist1" route="routedist1" depart="0" departPos="0" departSpeed="max" />
   <vehicle id="veh184" type="typedist1" route="routedist1" depart="0" departPos="0" departSpeed="max" />
   <vehicle id="veh185" type="typedist1" route="routedist1" depart="0" departPos="0" departSpeed="max" />
   <vehicle id="veh186" type="typedist1" route="routedist1" depart="0" departPos="0" departSpeed="max" />
   <vehicle id="veh187" type="typedist1" route="routedist1" depart="0" departPos="0" departSpeed="max" />
   <vehicle id="veh188" type="typedist1" route="routedist1" depart="0" departPos="0" departSpeed="max" />
   <vehicle id="veh189" type="typedist1" route="routedist1" depart="0" departPos="0" departSpeed="max" />
   <vehicle id="veh190" type="typedist1" route="routedist1" depart="0" departPos="0" departSpeed="max" />
   <vehicle id="veh191" type="typedist1" route="routedist1" depart="0" departPos="0" departSpeed="max" />
   <vehicle id="veh192" type="typedist1" route="routedist1" depart="0" departPos="0" departSpeed="max" />
   <vehicle id="veh193" type="typedist1" route="routedist1" depart="0" departPos="0" departSpeed="max" />
   <vehicle id="veh194" type="typedist1" route="routedist1" depart="0" departPos="0" departSpeed="max" />
   <vehicle id="veh195" type="typedist1" route="routedist1" depart="0" departPos="0" departSpeed="max" />
   <vehicle id="veh196" type="typedist1" route="routedist1" depart="0" departPos="0" departSpeed="max" />
   <vehicle id="veh197" type="typedist1" route="routedist1" depart="0" departPos="0" departSpeed="max" />
   <vehicle id="veh198" type="typedist1" route="routedist1" depart="0" departPos="0" departSpeed="max" />
   <vehicle id="veh199" type="typedist1" route="routedist1" depart="0" departPos="0" departSpeed="max" />
   <vehicle id="veh200" type="typedist1" route="routedist1" depart="0" departPos="0" departSpeed="max" />
   <vehicle id="veh201" type="typedist1" route="routedist1" depart="0" departPos="0" departSpeed="max" />
   <vehicle id="veh202" type="typedist1" route="routedist1" depart="0" departPos="0" departSpeed="max" />
   <vehicle id="veh203" type="typedist1" route="routedist1" depart="0" departPos="0" departSpeed="max" />
   <vehicle id="veh204" type="typedist1" route="routedist1" depart="0" departPos="0" departSpeed="max" />
   <vehicle id="veh205" type="typedist1" route="routedist1" depart="0" departPos="0" departSpeed="max" />
   <vehicle id="veh206" type="typedist1" route="routedist1" depart="0" departPos="0" departSpeed="max" />
   <vehicle id="veh207" type="typedist1" route="routedist1" depart="0" departPos="0" departSpeed="max" />
   <vehicle id="veh208" type="typedist1" route="routedist1" depart="0" departPos="0" departSpeed="max" />
   <vehicle id="veh209" type="typedist1" route="routedist1" depart="0" departPos="0" departSpeed="max" />
   <vehicle id="veh210" type="typedist1" route="routedist1" depart="0" departPos="0" departSpeed="max" />
   <vehicle id="veh211" type="typedist1" route="routedist1" depart="0" departPos="0" departSpeed="max" />
   <vehicle id="veh212" type="typedist1" route="routedist1" depart="0" departPos="0" departSpeed="max" />
   <vehicle id="veh213" type="typedist1" route="routedist1" depart="0" departPos="0" departSpeed="max" />
   <vehicle id="veh214" type="typedist1" route="routedist1" depart="0" departPos="0" departSpeed="max" />
   <vehicle id="veh215" type="typedist1" route="routedist1" depart="0" departPos="0" departSpeed="max" />
   <vehicle id="veh216" type="typedist1" route="routedist1" depart="0" departPos="0" departSpeed="max" />
   <vehicle id="veh217" type="typedist1" route="routedist1" depart="0" departPos="0" departSpeed="max" />
   <vehicle id="veh218" type="typedist1" route="routedist1" depart="0" departPos="0" departSpeed="max" />
   <vehicle id="veh219" type="typedist1" route="routedist1" depart="0" departPos="0" departSpeed="max" />
   <vehicle id="veh220" type="typedist1" route="routedist1" depart="0" departPos="0" departSpeed="max" />
   <vehicle id="veh221" type="typedist1" route="routedist1" depart="0" departPos="0" departSpeed="max" />
   <vehicle id="veh222" type="typedist1" route="routedist1" depart="0" departPos="0" departSpeed="max" />
   <vehicle id="veh223" type="typedist1" route="routedist1" depart="0" departPos="0" departSpeed="max" />
   <vehicle id="veh224" type="typedist1" route="routedist1" depart="0" departPos="0" departSpeed="max" />
   <vehicle id="veh225" type="typedist1" route="routedist1" depart="0" departPos="0" departSpeed="max" />
   <vehicle id="veh226" type="typedist1" route="routedist1" depart="0" departPos="0" departSpeed="max" />
   <vehicle id="veh227" type="typedist1" route="routedist1" depart="0" departPos="0" departSpeed="max" />
   <vehicle id="veh228" type="typedist1" route="routedist1" depart="0" departPos="0" departSpeed="max" />
   <vehicle id="veh229" type="typedist1" route="routedist1" depart="0" departPos="0" departSpeed="max" />
   <vehicle id="veh230" type="typedist1" route="routedist1" depart="0" departPos="0" departSpeed="max" />
   <vehicle id="veh231" type="typedist1" route="routedist1" depart="0" departPos="0" departSpeed="max" />
   <vehicle id="veh232" type="typedist1" route="routedist1" depart="0" departPos="0" departSpeed="max" />
   <vehicle id="veh233" type="typedist1" route="routedist1" depart="0" departPos="0" departSpeed="max" />
   <vehicle id="veh234" type="typedist1" route="routedist1" depart="0" departPos="0" departSpeed="max" />
   <vehicle id="veh235" type="typedist1" route="routedist1" depart="0" departPos="0" departSpeed="max" />
   <vehicle id="veh236" type="typedist1" route="routedist1" depart="0" departPos="0" departSpeed="max" />
   <vehicle id="veh237" type="typedist1" route="routedist1" depart="0" departPos="0" departSpeed="max" />
   <vehicle id="veh238" type="typedist1" route="routedist1" depart="0" departPos="0" departSpeed="max" />
   <vehicle id="veh239" type="typedist1" route="routedist1" depart="0" departPos="0" departSpeed="max" />
   <vehicle id="veh240" type="typedist1" route="routedist1" depart="0" departPos="0" departSpeed="max" />
   <vehicle id="veh241" type="typedist1" route="routedist1" depart="0" departPos="0" departSpeed="max" />
   <vehicle id="veh242" type="typedist1" route="routedist1" depart="0" departPos="0" departSpeed="max" />
   <vehicle id="veh243" type="typedist1" route="routedist1" depart="0" departPos="0" departSpeed="max" />
   <vehicle id="veh244" type="typedist1" route="routedist1" depart="0" departPos="0" departSpeed="max" />
   <vehicle id="veh245" type="typedist1" route="routedist1" depart="0" departPos="0" departSpeed="max" />
   <vehicle id="veh246" type="typedist1" route="routedist1" depart="0" departPos="0" departSpeed="max" />
   <vehicle id="veh247" type="typedist1" route="routedist1" depart="0" departPos="0" departSpeed="max" />
   <vehicle id="veh248" type="typedist1" route="routedist1" depart="0" departPos="0" departSpeed="max" />
   <vehicle id="veh249" type="typedist1" route="routedist1" depart="0" departPos="0" departSpeed="max" />
   <vehicle id="veh250" type="typedist1" route="routedist1" depart="0" departPos="0" departSpeed="max" />
   <vehicle id="veh251" type="typedist1" route="routedist1" depart="0" departPos="0" departSpeed="max" />
   <vehicle id="veh252" type="typedist1" route="routedist1" depart="0" departPos="0" departSpeed="max" />
   <vehicle id="veh253" type="typedist1" route="routedist1" depart="0" departPos="0" departSpeed="max" />
   <vehicle id="veh254" type="typedist1" route="routedist1" depart="0" departPos="0" departSpeed="max" />
   <vehicle id="veh255" type="typedist1" route="routedist1" depart="0" departPos="0" departSpeed="max" />
   <vehicle id="veh256" type="typedist1" route="routedist1" depart="0" departPos="0" departSpeed="max" />
   <vehicle id="veh257" type="typedist1" route="routedist1" depart="0" departPos="0" departSpeed="max" />
   <vehicle id="veh258" type="typedist1" route="routedist1" depart="0" departPos="0" departSpeed="max" />
   <vehicle id="veh259" type="typedist1" route="routedist1" depart="0" departPos="0" departSpeed="max" />
   <vehicle id="veh260" type="typedist1" route="routedist1" depart="0" departPos="0" departSpeed="max" />
   <vehicle id="veh261" type="typedist1" route="routedist1" depart="0" departPos="0" departSpeed="max" />
   <vehicle id="veh262" type="typedist1" route="routedist1" depart="0" departPos="0" departSpeed="max" />
   <vehicle id="veh263" type="typedist1" route="routedist1" depart="0" departPos="0" departSpeed="max" />
   <vehicle id="veh264" type="typedist1" route="routedist1" depart="0" departPos="0" departSpeed="max" />
   <vehicle id="veh265" type="typedist1" route="routedist1" depart="0" departPos="0" departSpeed="max" />
   <vehicle id="veh266" type="typedist1" route="routedist1" depart="0" departPos="0" departSpeed="max" />
   <vehicle id="veh267" type="typedist1" route="routedist1" depart="0" departPos="0" departSpeed="max" />
   <vehicle id="veh268" type="typedist1" route="routedist1" depart="0" departPos="0" departSpeed="max" />
   <vehicle id="veh269" type="typedist1" route="routedist1" depart="0" departPos="0" departSpeed="max" />
   <vehicle id="veh270" type="typedist1" route="routedist1" depart="0" departPos="0" departSpeed="max" />
   <vehicle id="veh271" type="typedist1" route="routedist1" depart="0" departPos="0" departSpeed="max" />