<nodes>
	<node id="c" x="0.0" y="0.0" type="traffic_light"/>
	<node id="n" x="0.0" y="280.00" type="priority"/>
	<node id="e" x="240.00" y="0.0" type="priority"/>
	<node id="s" x="0.0" y="-320.00" type="priority"/>
	<node id="w" x="-400.00" y="0.0" type="priority"/>
</nodes>
